grids/Texas2k_series25_case1_summerpeak.m
% Case saved by PowerWorld Simulator, version 24, build date March 14, 2025
function mpc = Texas2k_series25_case1_summerpeak
mpc.version = '2';
mpc.baseMVA =  100.00;

%% bus data 
mpc.bus = [
1001	1	20.78	5.32	0.00	0.00	1	1.0184284	55.167917	115.00	1	1.100	0.900	6.17	0.00	0	0
1002	1	27.08	4.37	0.00	0.00	1	1.0190604	62.748804	115.00	1	1.100	0.900	6.17	0.00	0	0
1003	1	0.00	0.00	0.00	0.00	1	1.0239463	62.646079	115.00	1	1.100	0.900	6.17	0.00	0	0
1004	1	0.00	0.00	0.00	0.00	1	1.0245764	59.653955	230.00	1	1.100	0.900	6.17	0.00	0	0
1005	1	0.00	0.00	0.00	0.00	1	1.0211096	51.759179	115.00	1	1.100	0.900	6.17	0.00	0	0
1006	2	0.00	0.00	0.00	0.00	1	1.0292618	53.640699	13.80	1	1.100	0.900	6.17	0.00	0	0
1007	1	10.48	7.93	0.00	9.43	1	1.0300000	63.751416	115.00	1	1.100	0.900	6.17	0.00	0	0
1008	2	0.00	0.00	0.00	0.00	1	1.0269480	75.646845	115.00	1	1.100	0.900	6.17	0.00	0	0
1009	2	0.00	0.00	0.00	0.00	1	1.0267791	80.885775	13.80	1	1.100	0.900	6.17	0.00	0	0
1010	1	0.00	0.00	0.00	-4.17	1	1.0300000	64.488409	115.00	1	1.100	0.900	6.17	0.00	0	0
1011	2	0.00	0.00	0.00	0.00	1	1.0301093	67.313409	22.00	1	1.100	0.900	6.17	0.00	0	0
1012	1	2.99	0.85	0.00	9.50	1	1.0177312	55.015839	115.00	1	1.100	0.900	6.17	0.00	0	0
1013	1	29.38	8.34	0.00	0.00	1	1.0054203	70.459069	115.00	1	1.100	0.900	6.17	0.00	0	0
1014	1	2.22	0.63	0.00	0.00	1	1.0097527	75.300731	115.00	1	1.100	0.900	6.17	0.00	0	0
1015	1	7.51	2.13	0.00	0.00	1	1.0320313	63.482318	115.00	1	1.100	0.900	6.17	0.00	0	0
1016	1	2.89	0.82	0.00	30.00	1	1.0285425	57.494596	115.00	1	1.100	0.900	6.17	0.00	0	0
1017	1	34.67	-0.91	0.00	0.00	1	1.0176559	55.593443	115.00	1	1.100	0.900	6.17	0.00	0	0
1018	1	0.08	0.02	0.00	0.00	1	1.0158502	55.520838	115.00	1	1.100	0.900	6.17	0.00	0	0
1019	1	61.78	17.50	0.00	0.00	1	1.0136512	53.663705	115.00	1	1.100	0.900	6.17	0.00	0	0
1020	1	0.00	0.00	0.00	75.96	1	1.0300000	49.782834	115.00	1	1.100	0.900	6.17	0.00	0	0
1021	2	0.00	0.00	0.00	0.00	1	1.0400000	55.574491	13.80	1	1.100	0.900	6.17	0.00	0	0
1022	1	0.00	0.00	0.00	0.00	1	1.0322790	65.236471	115.00	1	1.100	0.900	6.17	0.00	0	0
1023	2	0.00	0.00	0.00	0.00	1	1.0400000	71.680495	13.80	1	1.100	0.900	6.17	0.00	0	0
1024	2	63.94	17.86	0.00	0.00	1	1.0135814	56.227174	115.00	1	1.100	0.900	6.17	0.00	0	0
1025	1	0.00	0.00	0.00	0.00	1	1.0235112	50.982592	115.00	1	1.100	0.900	6.17	0.00	0	0
1026	2	0.00	0.00	0.00	0.00	1	1.0400000	55.766073	13.80	1	1.100	0.900	6.17	0.00	0	0
1027	1	101.42	10.09	0.00	75.00	1	1.0166313	51.518985	115.00	1	1.100	0.900	6.17	0.00	0	0
1028	1	10.53	4.00	0.00	0.00	1	1.0326430	66.657055	115.00	1	1.100	0.900	6.17	0.00	0	0
1029	1	131.33	23.57	0.00	40.00	1	1.0127116	53.097015	115.00	1	1.100	0.900	6.17	0.00	0	0
1030	1	24.63	0.24	0.00	0.00	1	1.0324225	68.482942	115.00	1	1.100	0.900	6.17	0.00	0	0
1031	1	9.25	4.22	0.00	0.00	1	1.0136373	66.393745	115.00	1	1.100	0.900	6.17	0.00	0	0
1032	1	0.00	0.00	0.00	0.00	1	1.0120316	69.830096	115.00	1	1.100	0.900	6.17	0.00	0	0
1033	2	0.00	0.00	0.00	250.00	1	1.0192431	65.746540	230.00	1	1.100	0.900	6.17	0.00	0	0
1034	1	0.00	0.00	0.00	0.00	1	1.0184709	50.790626	115.00	1	1.100	0.900	6.17	0.00	0	0
1035	2	0.00	0.00	0.00	0.00	1	1.0285544	53.387072	13.80	1	1.100	0.900	6.17	0.00	0	0
1036	1	24.12	3.85	0.00	0.00	1	1.0106148	71.756805	115.00	1	1.100	0.900	6.17	0.00	0	0
1037	1	102.24	28.97	0.00	105.80	1	1.0200000	54.645250	115.00	1	1.100	0.900	6.17	0.00	0	0
1038	1	0.00	0.00	0.00	0.00	1	1.0312805	73.844371	115.00	1	1.100	0.900	6.17	0.00	0	0
1039	2	0.00	0.00	0.00	0.00	1	1.0400000	82.003673	22.00	1	1.100	0.900	6.17	0.00	0	0
1040	1	56.23	12.57	0.00	0.00	1	1.0196165	54.226520	115.00	1	1.100	0.900	6.17	0.00	0	0
1041	1	0.00	0.00	0.00	0.00	1	1.0182163	51.541908	115.00	1	1.100	0.900	6.17	0.00	0	0
1042	2	0.00	0.00	0.00	0.00	1	1.0400000	58.211955	13.80	1	1.100	0.900	6.17	0.00	0	0
1044	1	23.03	2.65	0.00	0.00	1	1.0183460	56.244803	115.00	1	1.100	0.900	6.17	0.00	0	0
1045	1	112.79	63.27	0.00	0.00	1	1.0089757	53.716767	115.00	1	1.100	0.900	6.17	0.00	0	0
1046	1	11.09	2.03	0.00	12.00	1	1.0278682	62.256154	115.00	1	1.100	0.900	6.17	0.00	0	0
1047	1	0.00	0.00	0.00	331.41	1	1.0400000	65.826608	115.00	1	1.100	0.900	6.17	0.00	0	0
1048	2	0.00	0.00	0.00	0.00	1	1.0400000	73.584764	18.00	1	1.100	0.900	6.17	0.00	0	0
1049	2	0.00	0.00	0.00	0.00	1	1.0400000	68.983721	18.00	1	1.100	0.900	6.17	0.00	0	0
1050	2	0.00	0.00	0.00	0.00	1	1.0400000	70.105623	18.00	1	1.100	0.900	6.17	0.00	0	0
1051	2	0.00	0.00	0.00	0.00	1	1.0400000	71.520921	18.00	1	1.100	0.900	6.17	0.00	0	0
1052	2	0.00	0.00	0.00	0.00	1	1.0400000	74.195266	18.00	1	1.100	0.900	6.17	0.00	0	0
1053	1	0.00	0.00	0.00	0.00	1	1.0161266	62.772855	230.00	1	1.100	0.900	6.17	0.00	0	0
1054	1	17.02	4.25	0.00	0.00	1	1.0240620	56.698009	115.00	1	1.100	0.900	6.17	0.00	0	0
1055	1	3.98	1.13	0.00	0.00	1	1.0137750	61.568831	115.00	1	1.100	0.900	6.17	0.00	0	0
1056	1	0.00	0.00	0.00	76.59	1	1.0300000	53.569895	115.00	1	1.100	0.900	6.17	0.00	0	0
1057	2	0.00	0.00	0.00	0.00	1	1.0400000	61.078456	18.00	1	1.100	0.900	6.17	0.00	0	0
1058	1	18.07	0.22	0.00	0.00	1	1.0240766	71.531699	115.00	1	1.100	0.900	6.17	0.00	0	0
1061	1	0.00	0.00	0.00	0.00	1	1.0189710	51.570745	115.00	1	1.100	0.900	6.17	0.00	0	0
1062	2	0.00	0.00	0.00	0.00	1	1.0400000	57.110954	13.80	1	1.100	0.900	6.17	0.00	0	0
1063	2	0.00	0.00	0.00	0.00	1	1.0400000	58.180062	13.80	1	1.100	0.900	6.17	0.00	0	0
1064	1	162.00	35.07	0.00	0.00	1	1.0092381	53.667473	115.00	1	1.100	0.900	6.17	0.00	0	0
1065	1	0.00	0.00	0.00	0.00	1	1.0183560	51.592172	115.00	1	1.100	0.900	6.17	0.00	0	0
1066	2	0.00	0.00	0.00	0.00	1	1.0400000	59.406509	13.80	1	1.100	0.900	6.17	0.00	0	0
1067	2	101.55	28.77	0.00	0.00	1	1.0175244	51.375970	115.00	1	1.100	0.900	6.17	0.00	0	0
1068	1	80.94	16.50	0.00	35.69	1	1.0200000	58.903988	115.00	1	1.100	0.900	6.17	0.00	0	0
1069	1	0.00	0.00	0.00	0.00	1	1.0240697	74.092110	115.00	1	1.100	0.900	6.17	0.00	0	0
1070	2	0.00	0.00	0.00	0.00	1	1.0240697	74.092110	13.80	1	1.100	0.900	6.17	0.00	0	0
1071	1	91.46	25.91	0.00	0.00	1	1.0171324	54.795409	115.00	1	1.100	0.900	6.17	0.00	0	0
1072	2	0.00	0.00	0.00	0.00	1	1.0400000	58.239237	18.00	1	1.100	0.900	6.17	0.00	0	0
1073	2	0.00	0.00	0.00	0.00	1	1.0400000	55.834692	18.00	1	1.100	0.900	6.17	0.00	0	0
1074	2	0.00	0.00	0.00	0.00	1	1.0400000	58.069074	18.00	1	1.100	0.900	6.17	0.00	0	0
1075	2	0.00	0.00	0.00	0.00	1	1.0400000	57.611807	18.00	1	1.100	0.900	6.17	0.00	0	0
1076	2	0.00	0.00	0.00	0.00	1	1.0400000	60.591089	18.00	1	1.100	0.900	6.17	0.00	0	0
1077	2	0.00	0.00	0.00	0.00	1	1.0400000	56.508437	18.00	1	1.100	0.900	6.17	0.00	0	0
1079	1	0.00	0.00	0.00	0.00	1	1.0002462	28.885068	500.00	1	1.100	0.900	6.17	0.00	0	0
1081	1	0.00	0.00	0.00	500.00	1	1.0232200	56.689561	230.00	1	1.100	0.900	6.17	0.00	0	0
1082	1	0.00	0.00	0.00	0.00	1	1.0257928	73.901332	115.00	1	1.100	0.900	6.17	0.00	0	0
1083	1	39.95	11.32	0.00	20.19	1	1.0300000	73.051019	115.00	1	1.100	0.900	6.17	0.00	0	0
1084	1	0.00	0.00	0.00	0.00	1	1.0152308	49.585314	115.00	1	1.100	0.900	6.17	0.00	0	0
1085	1	22.78	6.03	0.00	0.00	1	1.0061613	64.729206	115.00	1	1.100	0.900	6.17	0.00	0	0
1086	1	43.68	11.24	0.00	30.00	1	1.0074651	80.346276	115.00	1	1.100	0.900	6.17	0.00	0	0
1087	1	0.91	0.26	0.00	18.34	1	1.0300000	66.665968	115.00	1	1.100	0.900	6.17	0.00	0	0
1088	1	0.00	0.00	0.00	0.00	1	1.0103050	68.478107	115.00	1	1.100	0.900	6.17	0.00	0	0
1089	1	43.57	23.14	0.00	0.00	1	0.9857338	58.237956	115.00	1	1.100	0.900	6.17	0.00	0	0
1090	2	0.00	0.00	0.00	0.00	1	1.0182374	59.513772	115.00	1	1.100	0.900	6.17	0.00	0	0
1091	1	18.43	3.29	0.00	0.00	1	1.0302976	55.411169	161.00	1	1.100	0.900	6.17	0.00	0	0
1093	1	153.57	27.79	0.00	0.00	1	1.0124245	58.705541	230.00	1	1.100	0.900	6.17	0.00	0	0
1094	1	57.59	16.90	0.00	0.00	1	0.9943671	61.764707	115.00	1	1.100	0.900	6.17	0.00	0	0
1095	1	0.00	0.00	0.00	0.00	1	0.9937607	44.888853	500.00	1	1.100	0.900	6.17	0.00	0	0
1096	1	146.12	72.93	0.00	1050.00	1	1.0019736	48.685184	230.00	1	1.100	0.900	6.17	0.00	0	0
1097	1	69.42	-7.58	0.00	0.00	1	1.0196675	50.754273	115.00	1	1.100	0.900	6.17	0.00	0	0
1099	1	175.68	85.54	0.00	0.00	1	1.0094060	58.726628	230.00	1	1.100	0.900	6.17	0.00	0	0
1100	1	53.58	24.03	0.00	0.00	1	1.0149379	55.577875	115.00	1	1.100	0.900	6.17	0.00	0	0
1101	1	128.12	52.27	0.00	0.00	1	1.0161386	55.988705	230.00	1	1.100	0.900	6.17	0.00	0	0
1102	1	114.01	45.73	0.00	151.86	1	1.0400000	53.757130	115.00	1	1.100	0.900	6.17	0.00	0	0
1103	1	140.63	-10.05	0.00	0.00	1	1.0078156	52.399824	230.00	1	1.100	0.900	6.17	0.00	0	0
1104	1	125.19	86.93	0.00	80.00	1	1.0147589	51.224909	115.00	1	1.100	0.900	6.17	0.00	0	0
1105	1	114.69	41.56	0.00	0.00	1	1.0080842	55.240591	230.00	1	1.100	0.900	6.17	0.00	0	0
1106	1	62.69	25.52	0.00	0.00	1	1.0110821	55.847608	115.00	1	1.100	0.900	6.17	0.00	0	0
1107	1	133.45	33.91	0.00	0.00	1	1.0061145	51.150553	230.00	1	1.100	0.900	6.17	0.00	0	0
1108	1	125.99	52.80	0.00	0.00	1	1.0138371	51.073180	115.00	1	1.100	0.900	6.17	0.00	0	0
1109	1	184.67	48.39	0.00	0.00	1	1.0171833	55.994306	230.00	1	1.100	0.900	6.17	0.00	0	0
1110	1	110.09	45.17	0.00	0.00	1	1.0079964	54.437762	115.00	1	1.100	0.900	6.17	0.00	0	0
1111	1	173.45	55.26	0.00	0.00	1	1.0106043	45.811982	230.00	1	1.100	0.900	6.17	0.00	0	0
1112	1	144.51	111.62	0.00	0.00	1	0.9867208	47.770816	115.00	1	1.100	0.900	6.17	0.00	0	0
1113	1	142.18	75.88	0.00	0.00	1	1.0030525	51.877485	230.00	1	1.100	0.900	6.17	0.00	0	0
1114	1	90.83	49.49	0.00	60.00	1	1.0174276	50.626398	115.00	1	1.100	0.900	6.17	0.00	0	0
1115	1	182.49	55.26	0.00	250.00	1	1.0198566	54.885301	230.00	1	1.100	0.900	6.17	0.00	0	0
1116	1	81.15	55.04	0.00	0.00	1	0.9979857	51.369548	115.00	1	1.100	0.900	6.17	0.00	0	0
1117	1	197.47	28.72	0.00	0.00	1	1.0132798	54.009466	230.00	1	1.100	0.900	6.17	0.00	0	0
1118	1	72.53	20.79	0.00	0.00	1	1.0063796	51.362987	115.00	1	1.100	0.900	6.17	0.00	0	0
1119	1	152.36	-8.43	0.00	0.00	1	1.0077337	49.156925	230.00	1	1.100	0.900	6.17	0.00	0	0
1120	1	66.25	22.58	0.00	0.00	1	1.0121730	50.871484	115.00	1	1.100	0.900	6.17	0.00	0	0
1121	1	197.50	8.39	0.00	0.00	1	1.0086656	53.463951	230.00	1	1.100	0.900	6.17	0.00	0	0
1122	1	66.80	26.41	0.00	0.00	1	1.0025562	50.972813	115.00	1	1.100	0.900	6.17	0.00	0	0
1123	1	191.83	48.51	0.00	0.00	1	1.0032573	51.946923	230.00	1	1.100	0.900	6.17	0.00	0	0
1124	1	81.10	19.25	0.00	0.00	1	1.0137704	50.632252	115.00	1	1.100	0.900	6.17	0.00	0	0
1125	1	182.98	58.43	0.00	0.00	1	1.0146497	57.159879	230.00	1	1.100	0.900	6.17	0.00	0	0
1126	1	70.19	29.82	0.00	0.00	1	1.0066669	58.178600	115.00	1	1.100	0.900	6.17	0.00	0	0
1127	1	172.59	54.00	0.00	0.00	1	1.0111722	54.180161	230.00	1	1.100	0.900	6.17	0.00	0	0
1128	1	109.99	55.68	0.00	200.00	1	1.0319777	54.323309	115.00	1	1.100	0.900	6.17	0.00	0	0
1129	1	177.24	45.10	0.00	0.00	1	1.0196282	56.461150	230.00	1	1.100	0.900	6.17	0.00	0	0
1130	1	67.79	39.53	0.00	0.00	1	1.0156655	54.777683	115.00	1	1.100	0.900	6.17	0.00	0	0
1131	1	153.87	23.80	0.00	0.00	1	1.0106405	53.901298	230.00	1	1.100	0.900	6.17	0.00	0	0
1132	1	104.68	16.73	0.00	0.00	1	1.0199000	52.684076	115.00	1	1.100	0.900	6.17	0.00	0	0
1133	1	152.56	83.09	0.00	0.00	1	1.0057467	51.467875	230.00	1	1.100	0.900	6.17	0.00	0	0
1134	1	52.39	-7.53	0.00	0.00	1	1.0167054	51.288572	115.00	1	1.100	0.900	6.17	0.00	0	0
2001	2	87.84	22.68	0.00	0.00	2	1.0138669	8.314643	161.00	1	1.100	0.900	6.17	0.00	0	0
2002	1	0.00	0.00	0.00	0.00	2	1.0259784	0.978221	500.00	1	1.100	0.900	6.17	0.00	0	0
2003	1	0.00	0.00	0.00	0.00	2	1.0186990	0.045051	161.00	1	1.100	0.900	6.17	0.00	0	0
2007	1	16.12	2.70	0.00	0.00	2	1.0142419	5.465871	161.00	1	1.100	0.900	6.17	0.00	0	0
2008	1	12.43	2.28	0.00	0.00	2	1.0394629	59.250280	161.00	1	1.100	0.900	6.17	0.00	0	0
2009	1	57.37	11.09	0.00	120.00	2	1.0258745	25.560079	161.00	1	1.100	0.900	6.17	0.00	0	0
2010	1	67.54	16.15	0.00	0.00	2	1.0321347	38.439020	161.00	1	1.100	0.900	6.17	0.00	0	0
2011	1	0.00	0.00	0.00	0.00	2	1.0418832	54.647729	500.00	1	1.100	0.900	6.17	0.00	0	0
2012	1	0.00	0.00	0.00	27.69	2	1.0400000	59.200431	161.00	1	1.100	0.900	6.17	0.00	0	0
2013	2	0.00	0.00	0.00	0.00	2	1.0400000	57.983812	18.00	1	1.100	0.900	6.17	0.00	0	0
2014	1	41.39	3.21	0.00	0.00	2	1.0362436	57.701886	161.00	1	1.100	0.900	6.17	0.00	0	0
2015	1	8.75	1.33	0.00	0.00	2	1.0161839	3.066754	161.00	1	1.100	0.900	6.17	0.00	0	0
2016	1	71.93	26.49	0.00	0.00	2	1.0184045	-3.755410	161.00	1	1.100	0.900	6.17	0.00	0	0
2017	1	0.00	0.00	0.00	-200.00	2	1.0399139	53.600176	500.00	1	1.100	0.900	6.17	0.00	0	0
2018	1	0.00	0.00	0.00	0.00	2	1.0325087	56.985740	161.00	1	1.100	0.900	6.17	0.00	0	0
2019	2	0.00	0.00	0.00	0.00	2	1.0400000	57.286541	20.00	1	1.100	0.900	6.17	0.00	0	0
2020	1	47.97	13.59	0.00	0.00	2	1.0216413	24.980946	161.00	1	1.100	0.900	6.17	0.00	0	0
2021	1	0.00	0.00	0.00	0.00	2	1.0330411	4.368816	500.00	1	1.100	0.900	6.17	0.00	0	0
2022	1	13.39	3.28	0.00	0.00	2	1.0217990	7.192906	161.00	1	1.100	0.900	6.17	0.00	0	0
2023	2	0.00	0.00	0.00	0.00	2	1.0400000	8.118911	13.80	1	1.100	0.900	6.17	0.00	0	0
2024	2	0.00	0.00	0.00	0.00	2	1.0400000	9.227557	13.80	1	1.100	0.900	6.17	0.00	0	0
2025	1	67.72	11.23	0.00	0.00	2	1.0216285	25.120768	161.00	1	1.100	0.900	6.17	0.00	0	0
2026	1	27.71	6.82	0.00	0.00	2	1.0257020	52.923899	161.00	1	1.100	0.900	6.17	0.00	0	0
2027	1	6.35	1.01	0.00	0.00	2	1.0224570	11.191387	161.00	1	1.100	0.900	6.17	0.00	0	0
2028	1	19.06	4.03	0.00	0.00	2	1.0207763	24.396043	161.00	1	1.100	0.900	6.17	0.00	0	0
2029	1	3.82	0.91	0.00	0.00	2	1.0417727	59.183586	161.00	1	1.100	0.900	6.17	0.00	0	0
2030	1	70.51	12.28	0.00	0.00	2	1.0046338	1.371233	161.00	1	1.100	0.900	6.17	0.00	0	0
2031	1	9.44	2.40	0.00	0.00	2	1.0282229	52.231045	161.00	1	1.100	0.900	6.17	0.00	0	0
2032	1	5.65	0.95	0.00	0.00	2	1.0161788	5.887064	161.00	1	1.100	0.900	6.17	0.00	0	0
2033	1	19.65	3.93	0.00	0.00	2	1.0107924	2.370850	161.00	1	1.100	0.900	6.17	0.00	0	0
2034	1	7.41	1.15	0.00	0.00	2	1.0215953	-2.094166	161.00	1	1.100	0.900	6.17	0.00	0	0
2035	1	8.45	1.76	0.00	0.00	2	1.0258962	38.429595	161.00	1	1.100	0.900	6.17	0.00	0	0
2036	1	66.08	11.78	0.00	0.00	2	1.0217127	25.468043	161.00	1	1.100	0.900	6.17	0.00	0	0
2037	1	4.48	1.52	0.00	0.00	2	1.0277198	5.005527	161.00	1	1.100	0.900	6.17	0.00	0	0
2038	1	4.19	3.26	0.00	0.00	2	1.0133263	0.065207	161.00	1	1.100	0.900	6.17	0.00	0	0
2039	1	8.26	1.58	0.00	0.00	2	1.0044983	6.599036	161.00	1	1.100	0.900	6.17	0.00	0	0
2040	1	16.75	4.51	0.00	0.00	2	1.0214373	7.881581	161.00	1	1.100	0.900	6.17	0.00	0	0
2041	1	0.00	0.00	0.00	0.00	2	1.0422141	61.094289	161.00	1	1.100	0.900	6.17	0.00	0	0
2042	2	0.00	0.00	0.00	0.00	2	1.0400000	66.277720	18.00	1	1.100	0.900	6.17	0.00	0	0
2043	1	7.85	-0.63	0.00	0.00	2	1.0213654	-2.087365	161.00	1	1.100	0.900	6.17	0.00	0	0
2044	1	41.32	7.76	0.00	0.00	2	1.0212791	-1.429892	161.00	1	1.100	0.900	6.17	0.00	0	0
2045	1	23.61	6.40	0.00	0.00	2	1.0213784	24.890512	161.00	1	1.100	0.900	6.17	0.00	0	0
2046	1	35.74	23.80	0.00	0.00	2	1.0223657	-2.028074	161.00	1	1.100	0.900	6.17	0.00	0	0
2047	1	20.15	4.24	0.00	0.00	2	1.0193923	-0.206275	161.00	1	1.100	0.900	6.17	0.00	0	0
2048	1	9.44	1.82	0.00	0.00	2	1.0292602	54.699710	161.00	1	1.100	0.900	6.17	0.00	0	0
2049	1	17.25	3.28	0.00	0.00	2	1.0292174	35.126828	161.00	1	1.100	0.900	6.17	0.00	0	0
2050	1	3.66	1.04	0.00	0.00	2	1.0209852	12.068193	161.00	1	1.100	0.900	6.17	0.00	0	0
2051	1	33.68	5.06	0.00	46.33	2	1.0200000	15.053881	161.00	1	1.100	0.900	6.17	0.00	0	0
2052	1	39.67	5.00	0.00	0.00	2	1.0355798	58.327244	161.00	1	1.100	0.900	6.17	0.00	0	0
2053	1	56.93	8.25	0.00	0.00	2	0.9999892	14.244720	161.00	1	1.100	0.900	6.17	0.00	0	0
2054	1	0.00	0.00	0.00	750.00	2	1.0239082	24.003773	500.00	1	1.100	0.900	6.17	0.00	0	0
2055	1	90.64	1.75	0.00	0.00	2	1.0214031	24.886476	161.00	1	1.100	0.900	6.17	0.00	0	0
2058	1	0.00	0.00	0.00	0.00	2	1.0392810	59.765193	161.00	1	1.100	0.900	6.17	0.00	0	0
2060	1	5.52	0.88	0.00	0.00	2	1.0139269	5.600564	161.00	1	1.100	0.900	6.17	0.00	0	0
2061	1	0.00	0.00	0.00	0.00	2	1.0384340	41.869713	161.00	1	1.100	0.900	6.17	0.00	0	0
2062	2	0.00	0.00	0.00	0.00	2	1.0400000	46.669496	18.00	1	1.100	0.900	6.17	0.00	0	0
2063	2	82.36	18.59	0.00	39.37	2	1.0299889	-1.536356	161.00	1	1.100	0.900	6.17	0.00	0	0
2064	1	11.42	3.22	0.00	0.00	2	1.0173971	6.344765	161.00	1	1.100	0.900	6.17	0.00	0	0
2065	1	103.15	22.20	0.00	94.65	2	1.0300000	2.353251	161.00	1	1.100	0.900	6.17	0.00	0	0
2066	1	10.42	2.77	0.00	0.00	2	1.0198197	44.845241	161.00	1	1.100	0.900	6.17	0.00	0	0
2067	1	63.88	15.29	0.00	0.00	2	1.0214269	25.174332	161.00	1	1.100	0.900	6.17	0.00	0	0
2068	1	7.81	1.63	0.00	0.00	2	1.0264430	26.057572	161.00	1	1.100	0.900	6.17	0.00	0	0
2069	1	34.61	6.21	0.00	114.24	2	1.0300000	-4.758483	161.00	1	1.100	0.900	6.17	0.00	0	0
2070	1	0.00	0.00	0.00	0.00	2	1.0244327	25.706272	161.00	1	1.100	0.900	6.17	0.00	0	0
2071	2	0.00	0.00	0.00	0.00	2	1.0400000	31.663532	18.00	1	1.100	0.900	6.17	0.00	0	0
2072	1	14.30	2.75	0.00	0.00	2	1.0215398	-3.324158	161.00	1	1.100	0.900	6.17	0.00	0	0
2073	1	0.00	0.00	0.00	0.00	2	1.0249588	50.158357	161.00	1	1.100	0.900	6.17	0.00	0	0
2074	1	0.00	0.00	0.00	0.00	2	1.0182911	53.070184	115.00	1	1.100	0.900	6.17	0.00	0	0
2076	2	0.00	0.00	0.00	0.00	2	1.0249588	50.158357	24.00	1	1.100	0.900	6.17	0.00	0	0
2077	1	0.00	0.00	0.00	0.00	2	1.0296188	7.000559	161.00	1	1.100	0.900	6.17	0.00	0	0
2078	2	0.00	0.00	0.00	0.00	2	1.0400000	14.937308	13.80	1	1.100	0.900	6.17	0.00	0	0
2079	1	6.22	1.27	0.00	0.00	2	1.0223116	44.905148	161.00	1	1.100	0.900	6.17	0.00	0	0
2080	1	27.45	13.98	0.00	0.00	2	1.0143804	10.838746	161.00	1	1.100	0.900	6.17	0.00	0	0
...
];

%% generator data 
mpc.gen = [
1006	120.00	25.60	25.60	-17.30	1.0400	133.30	1	120.00	0.00	0.00	0.00	0.00	0.00	0.00	0.00	0	0	0	0	120.0000	0	0	0	0
1008	28.00	0.00	0.00	0.00	1.0400	31.10	1	28.00	0.00	0.00	0.00	0.00	0.00	0.00	0.00	0	0	0	0	28.0000	0	0	0	0
1009	222.00	0.00	0.00	0.00	1.0400	246.70	1	222.00	0.00	0.00	0.00	0.00	0.00	0.00	0.00	0	0	0	0	222.0000	0	0	0	0
1011	10.00	0.00	0.00	0.00	1.0400	11.10	1	10.00	0.00	0.00	0.00	0.00	0.00	0.00	0.00	0	0	0	0	10.0000	0	0	0	0
1021	231.50	24.05	49.30	-33.30	1.0400	257.20	1	231.50	0.00	0.00	0.00	0.00	0.00	0.00	0.00	0	0	0	0	231.5000	0	0	0	0
1023	180.00	18.16	38.30	-25.90	1.0400	200.00	1	180.00	1.00	0.00	0.00	0.00	0.00	0.00	0.00	0	0	0	0	180.0000	0	0	0	0
1024	16.80	0.00	0.00	0.00	1.0400	18.70	1	16.80	0.00	0.00	0.00	0.00	0.00	0.00	0.00	0	0	0	0	16.8000	0	0	0	0
1026	124.20	23.33	26.50	-17.90	1.0400	138.00	1	124.20	0.00	0.00	0.00	0.00	0.00	0.00	0.00	0	0	0	0	124.2000	0	0	0	0
1033	50.00	0.00	0.00	0.00	1.0400	55.60	1	50.00	0.00	0.00	0.00	0.00	0.00	0.00	0.00	0	0	0	0	50.0000	0	0	0	0
1035	89.50	19.10	19.10	-12.90	1.0400	99.40	1	89.50	0.00	0.00	0.00	0.00	0.00	0.00	0.00	0	0	0	0	89.5000	0	0	0	0
1039	132.00	8.96	28.10	-19.00	1.0400	146.70	1	132.00	2.00	0.00	0.00	0.00	0.00	0.00	0.00	0	0	0	0	132.0000	0	0	0	0
1042	121.90	23.12	26.00	-17.60	1.0400	135.40	1	121.90	1.00	0.00	0.00	0.00	0.00	0.00	0.00	0	0	0	0	121.9000	0	0	0	0
1048	65.00	2.63	33.10	-7.20	1.0400	72.20	1	65.00	41.00	0.00	0.00	0.00	0.00	0.00	0.00	0	0	0	0	65.0000	0	0	0	0
1049	64.00	-0.65	32.60	-7.10	1.0400	71.10	1	64.00	41.00	0.00	0.00	0.00	0.00	0.00	0.00	0	0	0	0	64.0000	0	0	0	0
1050	64.00	0.78	32.60	-7.10	1.0400	71.10	1	64.00	41.00	0.00	0.00	0.00	0.00	0.00	0.00	0	0	0	0	64.0000	0	0	0	0
1051	64.00	1.15	32.60	-7.10	1.0400	71.10	1	64.00	41.00	0.00	0.00	0.00	0.00	0.00	0.00	0	0	0	0	64.0000	0	0	0	0
1052	63.00	1.37	32.10	-7.00	1.0400	70.00	1	63.00	41.00	0.00	0.00	0.00	0.00	0.00	0.00	0	0	0	0	63.0000	0	0	0	0
1057	120.00	12.88	25.60	-17.30	1.0400	133.30	1	120.00	0.00	0.00	0.00	0.00	0.00	0.00	0.00	0	0	0	0	120.0000	0	0	0	0
1062	71.00	15.36	36.10	-7.90	1.0400	78.90	1	71.00	45.00	0.00	0.00	0.00	0.00	0.00	0.00	0	0	0	0	71.0000	0	0	0	0
1063	71.00	15.28	36.10	-7.90	1.0400	78.90	1	71.00	45.00	0.00	0.00	0.00	0.00	0.00	0.00	0	0	0	0	71.0000	0	0	0	0
1066	142.50	28.47	30.40	-20.50	1.0400	158.30	1	142.50	0.00	0.00	0.00	0.00	0.00	0.00	0.00	0	0	0	0	142.5000	0	0	0	0
1067	58.80	12.50	12.50	-8.50	1.0400	65.30	1	58.80	0.10	0.00	0.00	0.00	0.00	0.00	0.00	0	0	0	0	58.8000	0	0	0	0
1070	0.00	0.00	35.70	-24.10	1.0400	186.30	0	167.70	0.00	0.00	0.00	0.00	0.00	0.00	0.00	0	0	0	0	167.7000	0	0	0	0
1072	114.38	38.14	104.90	-22.90	1.0400	228.90	1	206.00	53.30	0.00	0.00	0.00	0.00	0.00	0.00	0	0	0	0	206.0000	0	0	0	0
1073	85.68	97.32	104.90	-22.90	1.0400	228.90	1	206.00	55.60	0.00	0.00	0.00	0.00	0.00	0.00	0	0	0	0	206.0000	0	0	0	0
1074	101.18	38.44	84.90	-18.50	1.0400	185.20	1	166.70	84.80	0.00	0.00	0.00	0.00	0.00	0.00	0	0	0	0	166.7000	0	0	0	0
1075	122.00	54.24	84.90	-18.50	1.0400	185.20	1	166.70	92.20	0.00	0.00	0.00	0.00	0.00	0.00	0	0	0	0	166.7000	0	0	0	0
1076	128.00	30.84	80.50	-17.60	1.0400	175.80	1	158.20	82.70	0.00	0.00	0.00	0.00	0.00	0.00	0	0	0	0	158.2000	0	0	0	0
1077	95.20	64.00	80.50	-17.60	1.0400	175.80	1	158.20	95.20	0.00	0.00	0.00	0.00	0.00	0.00	0	0	0	0	158.2000	0	0	0	0
1090	36.00	0.00	0.00	0.00	1.0400	40.00	1	36.00	0.00	0.00	0.00	0.00	0.00	0.00	0.00	0	0	0	0	36.0000	0	0	0	0
1090	60.00	12.80	12.80	-8.60	1.0400	66.70	1	60.00	0.10	0.00	0.00	0.00	0.00	0.00	0.00	0	0	0	0	60.0000	0	0	0	0
2001	10.00	0.00	0.00	0.00	1.0400	11.10	1	10.00	0.00	0.00	0.00	0.00	0.00	0.00	0.00	0	0	0	0	10.0000	0	0	0	0
2013	211.20	-5.21	45.00	-30.40	1.0400	234.70	1	211.20	0.00	0.00	0.00	0.00	0.00	0.00	0.00	0	0	0	0	211.2000	0	0	0	0
2019	218.00	3.31	46.40	-31.40	1.0400	242.20	1	218.00	218.00	0.00	0.00	0.00	0.00	0.00	0.00	0	0	0	0	218.0000	0	0	0	0
2023	87.00	10.56	44.30	-9.70	1.0400	96.70	1	87.00	20.00	0.00	0.00	0.00	0.00	0.00	0.00	0	0	0	0	87.0000	0	0	0	0
2024	76.00	8.34	38.70	-8.40	1.0400	84.40	1	76.00	40.00	0.00	0.00	0.00	0.00	0.00	0.00	0	0	0	0	76.0000	0	0	0	0
2042	79.60	-1.15	17.00	-11.50	1.0400	88.40	1	79.60	4.00	0.00	0.00	0.00	0.00	0.00	0.00	0	0	0	0	79.6000	0	0	0	0
2062	135.40	4.80	28.80	-19.50	1.0400	150.40	1	135.40	6.80	0.00	0.00	0.00	0.00	0.00	0.00	0	0	0	0	135.4000	0	0	0	0
2063	50.00	19.20	19.20	-2.40	1.0400	55.60	1	50.00	25.00	0.00	0.00	0.00	0.00	0.00	0.00	0	0	0	0	50.0000	0	0	0	0
2063	50.00	19.20	19.20	-2.40	1.0400	55.60	1	50.00	25.00	0.00	0.00	0.00	0.00	0.00	0.00	0	0	0	0	50.0000	0	0	0	0
2071	161.00	22.76	34.30	-23.20	1.0400	178.90	1	161.00	0.00	0.00	0.00	0.00	0.00	0.00	0.00	0	0	0	0	161.0000	0	0	0	0
2076	0.00	0.00	53.20	-36.00	1.0400	277.80	0	250.00	1.00	0.00	0.00	0.00	0.00	0.00	0.00	0	0	0	0	250.0000	0	0	0	0
2078	112.50	12.18	24.00	-16.20	1.0400	125.00	1	112.50	5.60	0.00	0.00	0.00	0.00	0.00	0.00	0	0	0	0	112.5000	0	0	0	0
2082	17.00	8.70	8.70	-1.90	1.0400	18.90	1	17.00	2.00	0.00	0.00	0.00	0.00	0.00	0.00	0	0	0	0	17.0000	0	0	0	0
2083	19.70	5.91	10.00	-2.20	1.0400	21.90	1	19.70	2.00	0.00	0.00	0.00	0.00	0.00	0.00	0	0	0	0	19.7000	0	0	0	0
2084	19.70	4.23	10.00	-2.20	1.0400	21.90	1	19.70	2.00	0.00	0.00	0.00	0.00	0.00	0.00	0	0	0	0	19.7000	0	0	0	0
2085	19.70	3.89	10.00	-2.20	1.0400	21.90	1	19.70	2.00	0.00	0.00	0.00	0.00	0.00	0.00	0	0	0	0	19.7000	0	0	0	0
2089	67.60	14.40	14.40	-9.70	1.0400	75.10	1	67.60	0.00	0.00	0.00	0.00	0.00	0.00	0.00	0	0	0	0	67.6000	0	0	0	0
2091	30.20	6.40	6.40	-4.30	1.0400	33.60	1	30.20	2.50	0.00	0.00	0.00	0.00	0.00	0.00	0	0	0	0	30.2000	0	0	0	0
2099	150.00	25.05	31.90	-21.60	1.0400	166.70	1	150.00	0.00	0.00	0.00	0.00	0.00	0.00	0.00	0	0	0	0	150.0000	0	0	0	0
2103	150.00	33.35	146.10	-31.90	1.0400	318.90	1	287.00	150.00	0.00	0.00	0.00	0.00	0.00	0.00	0	0	0	0	287.0000	0	0	0	0
2104	0.00	0.00	101.30	-22.10	1.0400	221.10	0	199.00	125.00	0.00	0.00	0.00	0.00	0.00	0.00	0	0	0	0	199.0000	0	0	0	0
2105	0.00	0.00	101.30	-22.10	1.0400	221.10	0	199.00	125.00	0.00	0.00	0.00	0.00	0.00	0.00	0	0	0	0	199.0000	0	0	0	0
2106	10.00	0.00	0.00	0.00	1.0400	11.10	1	10.00	0.00	0.00	0.00	0.00	0.00	0.00	0.00	0	0	0	0	10.0000	0	0	0	0
2115	92.80	9.83	103.80	-22.60	1.0400	226.70	1	204.00	65.00	0.00	0.00	0.00	0.00	0.00	0.00	0	0	0	0	204.0000	0	0	0	0
2116	92.80	23.23	103.80	-22.60	1.0400	226.70	1	204.00	65.00	0.00	0.00	0.00	0.00	0.00	0.00	0	0	0	0	204.0000	0	0	0	0
2117	127.80	12.00	77.90	-17.00	1.0400	170.00	1	153.00	90.00	0.00	0.00	0.00	0.00	0.00	0.00	0	0	0	0	153.0000	0	0	0	0
2118	127.80	23.26	77.90	-17.00	1.0400	170.00	1	153.00	90.00	0.00	0.00	0.00	0.00	0.00	0.00	0	0	0	0	153.0000	0	0	0	0
2119	145.00	19.88	73.80	-16.10	1.0400	161.10	1	145.00	90.00	0.00	0.00	0.00	0.00	0.00	0.00	0	0	0	0	145.0000	0	0	0	0
2120	0.00	0.00	73.80	-16.10	1.0400	161.10	0	145.00	90.00	0.00	0.00	0.00	0.00	0.00	0.00	0	0	0	0	145.0000	0	0	0	0
3004	37.50	4.02	8.00	-5.40	1.0400	41.70	1	37.50	0.10	0.00	0.00	0.00	0.00	0.00	0.00	0	0	0	0	37.5000	0	0	0	0
3014	13.80	5.30	5.30	-0.70	1.0400	15.30	1	13.80	7.00	0.00	0.00	0.00	0.00	0.00	0.00	0	0	0	0	13.8000	0	0	0	0
3017	418.90	73.71	89.20	-60.30	1.0400	465.40	1	418.90	23.00	0.00	0.00	0.00	0.00	0.00	0.00	0	0	0	0	418.9000	0	0	0	0
3020	199.50	42.50	42.50	-28.70	1.0400	221.70	1	199.50	2.60	0.00	0.00	0.00	0.00	0.00	0.00	0	0	0	0	199.5000	0	0	0	0
3028	0.00	0.00	42.60	-28.80	1.0400	222.20	0	200.00	50.00	0.00	0.00	0.00	0.00	0.00	0.00	0	0	0	0	200.0000	0	0	0	0
3034	311.00	4.88	66.20	-44.80	1.0400	345.60	1	311.00	0.00	0.00	0.00	0.00	0.00	0.00	0.00	0	0	0	0	311.0000	0	0	0	0
3039	209.00	44.50	44.50	-30.10	1.0400	232.20	1	209.00	0.00	0.00	0.00	0.00	0.00	0.00	0.00	0	0	0	0	209.0000	0	0	0	0
3055	0.00	0.00	63.70	-43.10	1.0400	332.20	0	299.00	0.10	0.00	0.00	0.00	0.00	0.00	0.00	0	0	0	0	299.0000	0	0	0	0
3056	223.50	47.60	47.60	-32.20	1.0400	248.30	1	223.50	0.10	0.00	0.00	0.00	0.00	0.00	0.00	0	0	0	0	223.5000	0	0	0	0
3057	0.00	0.00	45.40	-30.70	1.0400	236.70	0	213.00	0.10	0.00	0.00	0.00	0.00	0.00	0.00	0	0	0	0	213.0000	0	0	0	0
3060	214.50	45.70	45.70	-30.90	1.0400	238.30	1	214.50	7.50	0.00	0.00	0.00	0.00	0.00	0.00	0	0	0	0	214.5000	0	0	0	0
3061	186.00	39.60	39.60	-26.80	1.0400	206.70	1	186.00	14.90	0.00	0.00	0.00	0.00	0.00	0.00	0	0	0	0	186.0000	0	0	0	0
3062	149.50	31.80	31.80	-21.50	1.0400	166.10	1	149.50	21.50	0.00	0.00	0.00	0.00	0.00	0.00	0	0	0	0	149.5000	0	0	0	0
3063	112.50	24.00	24.00	-16.20	1.0400	125.00	1	112.50	5.60	0.00	0.00	0.00	0.00	0.00	0.00	0	0	0	0	112.5000	0	0	0	0
3065	182.40	4.60	38.90	-26.30	1.0400	202.70	1	182.40	0.10	0.00	0.00	0.00	0.00	0.00	0.00	0	0	0	0	182.4000	0	0	0	0
3068	152.00	25.73	32.40	-21.90	1.0400	168.90	1	152.00	0.00	0.00	0.00	0.00	0.00	0.00	0.00	0	0	0	0	152.0000	0	0	0	0
3071	170.20	36.30	36.30	-24.50	1.0400	189.10	1	170.20	0.00	0.00	0.00	0.00	0.00	0.00	0.00	0	0	0	0	170.2000	0	0	0	0
3074	99.80	21.30	21.30	-14.40	1.0400	110.90	1	99.80	0.00	0.00	0.00	0.00	0.00	0.00	0.00	0	0	0	0	99.8000	0	0	0	0
3081	249.00	53.00	53.00	-35.90	1.0400	276.70	1	249.00	0.00	0.00	0.00	0.00	0.00	0.00	0.00	0	0	0	0	249.0000	0	0	0	0
3084	0.00	0.00	49.50	-33.50	1.0400	258.30	0	232.50	0.00	0.00	0.00	0.00	0.00	0.00	0.00	0	0	0	0	232.5000	0	0	0	0
3086	75.00	5.30	16.00	-10.80	1.0400	83.30	1	75.00	0.00	0.00	0.00	0.00	0.00	0.00	0.00	0	0	0	0	75.0000	0	0	0	0
3087	73.50	7.31	15.70	-10.60	1.0400	81.70	1	73.50	0.00	0.00	0.00	0.00	0.00	0.00	0.00	0	0	0	0	73.5000	0	0	0	0
3092	200.00	23.98	42.60	-28.80	1.0400	222.20	1	200.00	50.00	0.00	0.00	0.00	0.00	0.00	0.00	0	0	0	0	200.0000	0	0	0	0
3095	120.60	25.70	25.70	-17.40	1.0400	134.00	1	120.60	0.00	0.00	0.00	0.00	0.00	0.00	0.00	0	0	0	0	120.6000	0	0	0	0
3098	182.40	33.15	38.90	-26.30	1.0400	202.70	1	182.40	10.40	0.00	0.00	0.00	0.00	0.00	0.00	0	0	0	0	182.4000	0	0	0	0
3104	0.00	0.00	7.00	-0.90	1.0400	20.30	0	18.30	11.00	0.00	0.00	0.00	0.00	0.00	0.00	0	0	0	0	18.3000	0	0	0	0
3105	0.00	0.00	7.00	-0.90	1.0400	20.30	0	18.30	11.00	0.00	0.00	0.00	0.00	0.00	0.00	0	0	0	0	18.3000	0	0	0	0
3106	18.30	7.00	7.00	-0.90	1.0400	20.30	1	18.30	11.00	0.00	0.00	0.00	0.00	0.00	0.00	0	0	0	0	18.3000	0	0	0	0
3110	0.00	0.00	33.10	-22.40	1.0400	172.70	0	155.40	0.00	0.00	0.00	0.00	0.00	0.00	0.00	0	0	0	0	155.4000	0	0	0	0
3112	80.00	17.00	17.00	-11.50	1.0400	88.90	1	80.00	1.00	0.00	0.00	0.00	0.00	0.00	0.00	0	0	0	0	80.0000	0	0	0	0
3113	69.60	14.67	14.80	-10.00	1.0400	77.30	1	69.60	1.00	0.00	0.00	0.00	0.00	0.00	0.00	0	0	0	0	69.6000	0	0	0	0
3115	30.00	6.40	6.40	-4.30	1.0400	33.30	1	30.00	0.00	0.00	0.00	0.00	0.00	0.00	0.00	0	0	0	0	30.0000	0	0	0	0
3117	120.00	14.09	25.60	-17.30	1.0400	133.30	1	120.00	0.00	0.00	0.00	0.00	0.00	0.00	0.00	0	0	0	0	120.0000	0	0	0	0
3120	100.00	0.00	0.00	0.00	1.0400	111.10	1	100.00	0.00	0.00	0.00	0.00	0.00	0.00	0.00	0	0	0	0	100.0000	0	0	0	0
3122	197.00	34.06	42.00	-28.40	1.0400	218.90	1	197.00	0.00	0.00	0.00	0.00	0.00	0.00	0.00	0	0	0	0	197.0000	0	0	0	0
4007	10.00	0.00	0.00	0.00	1.0400	11.10	1	10.00	0.00	0.00	0.00	0.00	0.00	0.00	0.00	0	0	0	0	10.0000	0	0	0	0
4010	201.60	6.69	42.90	-29.00	1.0400	224.00	1	201.60	0.00	0.00	0.00	0.00	0.00	0.00	0.00	0	0	0	0	201.6000	0	0	0	0
4026	250.00	61.80	182.20	-47.70	1.0400	434.40	1	391.00	250.00	0.00	0.00	0.00	0.00	0.00	0.00	0	0	0	0	391.0000	0	0	0	0
4030	175.00	62.63	305.20	-79.90	1.0400	727.80	1	655.00	175.00	0.00	0.00	0.00	0.00	0.00	0.00	0	0	0	0	655.0000	0	0	0	0
4035	33.00	16.80	16.80	-3.70	1.0400	36.70	1	33.00	26.00	0.00	0.00	0.00	0.00	0.00	0.00	0	0	0	0	33.0000	0	0	0	0
4041	0.00	0.00	0.00	0.00	1.0400	11.10	0	10.00	0.00	0.00	0.00	0.00	0.00	0.00	0.00	0	0	0	0	10.0000	0	0	0	0
4045	10.50	1.42	4.00	-0.50	1.0400	11.70	1	10.50	3.00	0.00	0.00	0.00	0.00	0.00	0.00	0	0	0	0	10.5000	0	0	0	0
4046	10.00	1.40	3.80	-0.50	1.0400	11.10	1	10.00	3.00	0.00	0.00	0.00	0.00	0.00	0.00	0	0	0	0	10.0000	0	0	0	0
4047	10.00	2.10	3.80	-0.50	1.0400	11.10	1	10.00	3.00	0.00	0.00	0.00	0.00	0.00	0.00	0	0	0	0	10.0000	0	0	0	0
4050	272.60	30.65	58.10	-39.30	1.0400	302.90	1	272.60	0.20	0.00	0.00	0.00	0.00	0.00	0.00	0	0	0	0	272.6000	0	0	0	0
4052	32.50	16.50	16.50	-3.60	1.0400	36.10	1	32.50	18.00	0.00	0.00	0.00	0.00	0.00	0.00	0	0	0	0	32.5000	0	0	0	0
4058	124.00	7.91	78.90	-17.20	1.0400	172.20	1	155.00	0.00	0.00	0.00	0.00	0.00	0.00	0.00	0	0	0	0	155.0000	0	0	0	0
4059	93.00	19.24	78.90	-17.20	1.0400	172.20	1	155.00	0.00	0.00	0.00	0.00	0.00	0.00	0.00	0	0	0	0	155.0000	0	0	0	0
4060	120.00	6.54	76.30	-16.60	1.0400	166.70	1	150.00	0.00	0.00	0.00	0.00	0.00	0.00	0.00	0	0	0	0	150.0000	0	0	0	0
4065	150.00	0.00	0.00	0.00	1.0400	166.70	1	150.00	0.00	0.00	0.00	0.00	0.00	0.00	0.00	0	0	0	0	150.0000	0	0	0	0
4067	10.00	0.00	0.00	0.00	1.0400	11.10	1	10.00	0.00	0.00	0.00	0.00	0.00	0.00	0.00	0	0	0	0	10.0000	0	0	0	0
4068	10.00	0.00	0.00	0.00	1.0400	11.10	1	10.00	0.00	0.00	0.00	0.00	0.00	0.00	0.00	0	0	0	0	10.0000	0	0	0	0
4069	5.00	12.40	12.40	-3.20	1.0400	29.60	1	26.60	5.00	0.00	0.00	0.00	0.00	0.00	0.00	0	0	0	0	26.6000	0	0	0	0
4069	5.00	12.40	12.40	-3.20	1.0400	29.60	1	26.60	5.00	0.00	0.00	0.00	0.00	0.00	0.00	0	0	0	0	26.6000	0	0	0	0
4069	12.00	0.00	0.00	0.00	1.0400	13.30	1	12.00	0.00	0.00	0.00	0.00	0.00	0.00	0.00	0	0	0	0	12.0000	0	0	0	0
4075	100.00	20.29	92.10	-20.10	1.0400	201.10	1	181.00	100.00	0.00	0.00	0.00	0.00	0.00	0.00	0	0	0	0	181.0000	0	0	0	0
4076	0.00	0.00	90.10	-19.60	1.0400	196.70	0	177.00	70.00	0.00	0.00	0.00	0.00	0.00	0.00	0	0	0	0	177.0000	0	0	0	0
4077	112.80	24.54	90.10	-19.60	1.0400	196.70	1	177.00	70.00	0.00	0.00	0.00	0.00	0.00	0.00	0	0	0	0	177.0000	0	0	0	0
4082	100.00	20.11	162.40	-35.40	1.0400	354.40	1	319.00	100.00	0.00	0.00	0.00	0.00	0.00	0.00	0	0	0	0	319.0000	0	0	0	0
4083	106.40	18.97	148.60	-32.40	1.0400	324.40	1	292.00	60.00	0.00	0.00	0.00	0.00	0.00	0.00	0	0	0	0	292.0000	0	0	0	0
4084	118.20	11.32	79.90	-17.40	1.0400	174.40	1	157.00	60.00	0.00	0.00	0.00	0.00	0.00	0.00	0	0	0	0	157.0000	0	0	0	0
4085	118.20	14.93	79.90	-17.40	1.0400	174.40	1	157.00	60.00	0.00	0.00	0.00	0.00	0.00	0.00	0	0	0	0	157.0000	0	0	0	0
4090	10.00	0.00	0.00	0.00	1.0400	11.10	1	10.00	4.00	0.00	0.00	0.00	0.00	0.00	0.00	0	0	0	0	10.0000	0	0	0	0
4100	11.70	0.00	0.00	0.00	1.0400	13.00	1	11.70	0.00	0.00	0.00	0.00	0.00	0.00	0.00	0	0	0	0	11.7000	0	0	0	0
4100	11.70	0.00	0.00	0.00	1.0400	13.00	1	11.70	0.00	0.00	0.00	0.00	0.00	0.00	0.00	0	0	0	0	11.7000	0	0	0	0
4102	10.00	0.00	0.00	0.00	1.0400	11.10	1	10.00	0.00	0.00	0.00	0.00	0.00	0.00	0.00	0	0	0	0	10.0000	0	0	0	0
4103	0.00	0.00	9.30	-2.00	1.0400	20.30	0	18.30	7.50	0.00	0.00	0.00	0.00	0.00	0.00	0	0	0	0	18.3000	0	0	0	0
4103	18.30	9.30	9.30	-2.00	1.0400	20.30	1	18.30	7.50	0.00	0.00	0.00	0.00	0.00	0.00	0	0	0	0	18.3000	0	0	0	0
4103	18.30	9.30	9.30	-2.00	1.0400	20.30	1	18.30	7.50	0.00	0.00	0.00	0.00	0.00	0.00	0	0	0	0	18.3000	0	0	0	0
4103	18.30	9.30	9.30	-2.00	1.0400	20.30	1	18.30	7.50	0.00	0.00	0.00	0.00	0.00	0.00	0	0	0	0	18.3000	0	0	0	0
4103	18.30	9.30	9.30	-2.00	1.0400	20.30	1	18.30	7.50	0.00	0.00	0.00	0.00	0.00	0.00	0	0	0	0	18.3000	0	0	0	0
4103	18.30	9.30	9.30	-2.00	1.0400	20.30	1	18.30	7.50	0.00	0.00	0.00	0.00	0.00	0.00	0	0	0	0	18.3000	0	0	0	0
4103	18.30	9.30	9.30	-2.00	1.0400	20.30	1	18.30	7.50	0.00	0.00	0.00	0.00	0.00	0.00	0	0	0	0	18.3000	0	0	0	0
4103	18.30	9.30	9.30	-2.00	1.0400	20.30	1	18.30	7.50	0.00	0.00	0.00	0.00	0.00	0.00	0	0	0	0	18.3000	0	0	0	0
4103	18.30	9.30	9.30	-2.00	1.0400	20.30	1	18.30	7.50	0.00	0.00	0.00	0.00	0.00	0.00	0	0	0	0	18.3000	0	0	0	0
4103	18.30	9.30	9.30	-2.00	1.0400	20.30	1	18.30	7.50	0.00	0.00	0.00	0.00	0.00	0.00	0	0	0	0	18.3000	0	0	0	0
4103	0.00	0.00	9.30	-2.00	1.0400	20.30	0	18.30	7.50	0.00	0.00	0.00	0.00	0.00	0.00	0	0	0	0	18.3000	0	0	0	0
4103	18.30	9.30	9.30	-2.00	1.0400	20.30	1	18.30	7.50	0.00	0.00	0.00	0.00	0.00	0.00	0	0	0	0	18.3000	0	0	0	0
4105	0.00	0.00	38.30	-25.90	1.0400	200.00	0	180.00	0.00	0.00	0.00	0.00	0.00	0.00	0.00	0	0	0	0	180.0000	0	0	0	0
4111	10.00	0.00	0.00	0.00	1.0400	11.10	1	10.00	0.00	0.00	0.00	0.00	0.00	0.00	0.00	0	0	0	0	10.0000	0	0	0	0
4115	0.00	0.00	45.90	-10.00	1.0400	100.10	0	90.10	35.00	0.00	0.00	0.00	0.00	0.00	0.00	0	0	0	0	90.1000	0	0	0	0
4116	87.30	14.94	44.40	-9.70	1.0400	97.00	1	87.30	35.00	0.00	0.00	0.00	0.00	0.00	0.00	0	0	0	0	87.3000	0	0	0	0
4121	45.00	0.00	0.00	0.00	1.0400	50.00	1	45.00	0.00	0.00	0.00	0.00	0.00	0.00	0.00	0	0	0	0	45.0000	0	0	0	0
4133	200.00	0.00	0.00	0.00	1.0400	222.20	1	200.00	0.00	0.00	0.00	0.00	0.00	0.00	0.00	0	0	0	0	200.0000	0	0	0	0
4153	283.20	14.16	60.30	-40.80	1.0400	314.70	1	283.20	283.20	0.00	0.00	0.00	0.00	0.00	0.00	0	0	0	0	283.2000	0	0	0	0
4160	0.00	0.00	162.40	-35.40	1.0400	354.40	0	319.00	100.00	0.00	0.00	0.00	0.00	0.00	0.00	0	0	0	0	319.0000	0	0	0	0
4161	98.80	10.59	79.90	-17.40	1.0400	174.40	1	157.00	60.00	0.00	0.00	0.00	0.00	0.00	0.00	0	0	0	0	157.0000	0	0	0	0
4162	118.20	9.26	79.90	-17.40	1.0400	174.40	1	157.00	60.00	0.00	0.00	0.00	0.00	0.00	0.00	0	0	0	0	157.0000	0	0	0	0
4166	201.60	5.78	42.90	-29.00	1.0400	224.00	1	201.60	0.00	0.00	0.00	0.00	0.00	0.00	0.00	0	0	0	0	201.6000	0	0	0	0
4177	150.00	2.77	31.90	-21.60	1.0400	166.70	1	150.00	1.00	0.00	0.00	0.00	0.00	0.00	0.00	0	0	0	0	150.0000	0	0	0	0
5012	18.80	9.60	9.60	-2.10	1.0400	20.90	1	18.80	3.80	0.00	0.00	0.00	0.00	0.00	0.00	0	0	0	0	18.8000	0	0	0	0
5012	18.80	9.60	9.60	-2.10	1.0400	20.90	1	18.80	3.80	0.00	0.00	0.00	0.00	0.00	0.00	0	0	0	0	18.8000	0	0	0	0
5012	18.80	9.60	9.60	-2.10	1.0400	20.90	1	18.80	3.80	0.00	0.00	0.00	0.00	0.00	0.00	0	0	0	0	18.8000	0	0	0	0
5012	18.80	9.60	9.60	-2.10	1.0400	20.90	1	18.80	3.80	0.00	0.00	0.00	0.00	0.00	0.00	0	0	0	0	18.8000	0	0	0	0
5012	18.80	9.60	9.60	-2.10	1.0400	20.90	1	18.80	3.80	0.00	0.00	0.00	0.00	0.00	0.00	0	0	0	0	18.8000	0	0	0	0
5012	18.80	9.60	9.60	-2.10	1.0400	20.90	1	18.80	3.80	0.00	0.00	0.00	0.00	0.00	0.00	0	0	0	0	18.8000	0	0	0	0
5012	18.80	9.60	9.60	-2.10	1.0400	20.90	1	18.80	3.80	0.00	0.00	0.00	0.00	0.00	0.00	0	0	0	0	18.8000	0	0	0	0
5012	18.80	9.60	9.60	-2.10	1.0400	20.90	1	18.80	3.80	0.00	0.00	0.00	0.00	0.00	0.00	0	0	0	0	18.8000	0	0	0	0
5012	18.80	9.60	9.60	-2.10	1.0400	20.90	1	18.80	3.80	0.00	0.00	0.00	0.00	0.00	0.00	0	0	0	0	18.8000	0	0	0	0
5012	18.80	9.60	9.60	-2.10	1.0400	20.90	1	18.80	3.80	0.00	0.00	0.00	0.00	0.00	0.00	0	0	0	0	18.8000	0	0	0	0
5012	18.80	9.60	9.60	-2.10	1.0400	20.90	1	18.80	3.80	0.00	0.00	0.00	0.00	0.00	0.00	0	0	0	0	18.8000	0	0	0	0
5012	18.80	9.60	9.60	-2.10	1.0400	20.90	1	18.80	3.80	0.00	0.00	0.00	0.00	0.00	0.00	0	0	0	0	18.8000	0	0	0	0
5020	120.00	25.60	25.60	-17.30	1.0400	133.30	1	120.00	0.00	0.00	0.00	0.00	0.00	0.00	0.00	0	0	0	0	120.0000	0	0	0	0
5029	10.00	0.00	0.00	0.00	1.0400	11.10	1	10.00	0.00	0.00	0.00	0.00	0.00	0.00	0.00	0	0	0	0	10.0000	0	0	0	0
5049	10.00	10.70	10.70	-2.80	1.0400	25.60	1	23.00	10.00	0.00	0.00	0.00	0.00	0.00	0.00	0	0	0	0	23.0000	0	0	0	0
5049	0.00	0.00	9.20	-2.00	1.0400	20.00	0	18.00	10.00	0.00	0.00	0.00	0.00	0.00	0.00	0	0	0	0	18.0000	0	0	0	0
5051	0.00	0.00	19.10	-5.00	1.0400	45.60	0	41.00	13.00	0.00	0.00	0.00	0.00	0.00	0.00	0	0	0	0	41.0000	0	0	0	0
5057	0.00	0.00	198.50	-43.30	1.0400	433.30	0	390.00	26.00	0.00	0.00	0.00	0.00	0.00	0.00	0	0	0	0	390.0000	0	0	0	0
5058	0.00	0.00	121.70	-26.50	1.0400	265.60	0	239.00	46.00	0.00	0.00	0.00	0.00	0.00	0.00	0	0	0	0	239.0000	0	0	0	0
5080	44.20	0.00	0.00	0.00	1.0400	49.10	1	44.20	0.00	0.00	0.00	0.00	0.00	0.00	0.00	0	0	0	0	44.2000	0	0	0	0
5081	15.40	0.00	0.00	0.00	1.0400	17.10	1	15.40	0.00	0.00	0.00	0.00	0.00	0.00	0.00	0	0	0	0	15.4000	0	0	0	0
5089	0.00	0.00	105.90	-23.10	1.0400	231.10	0	208.00	65.00	0.00	0.00	0.00	0.00	0.00	0.00	0	0	0	0	208.0000	0	0	0	0
5115	10.00	0.00	0.00	0.00	1.0400	11.10	1	10.00	0.00	0.00	0.00	0.00	0.00	0.00	0.00	0	0	0	0	10.0000	0	0	0	0
5154	0.00	0.00	0.00	0.00	1.0400	58.00	0	52.20	0.00	0.00	0.00	0.00	0.00	0.00	0.00	0	0	0	0	52.2000	0	0	0	0
5166	0.00	0.00	31.00	-6.80	1.0400	67.80	0	61.00	10.00	0.00	0.00	0.00	0.00	0.00	0.00	0	0	0	0	61.0000	0	0	0	0
5167	0.00	0.00	31.00	-6.80	1.0400	67.80	0	61.00	10.00	0.00	0.00	0.00	0.00	0.00	0.00	0	0	0	0	61.0000	0	0	0	0
5170	52.80	11.20	11.20	-7.60	1.0400	58.70	1	52.80	1.00	0.00	0.00	0.00	0.00	0.00	0.00	0	0	0	0	52.8000	0	0	0	0
5174	49.60	0.00	0.00	0.00	1.0400	55.10	1	49.60	0.00	0.00	0.00	0.00	0.00	0.00	0.00	0	0	0	0	49.6000	0	0	0	0
5198	0.00	0.00	31.90	-21.60	1.0400	166.70	0	150.00	40.00	0.00	0.00	0.00	0.00	0.00	0.00	0	0	0	0	150.0000	0	0	0	0
5206	0.00	0.00	147.90	-32.20	1.0400	322.80	0	290.50	60.00	0.00	0.00	0.00	0.00	0.00	0.00	0	0	0	0	290.5000	0	0	0	0
5207	106.10	147.90	147.90	-32.20	1.0400	322.80	1	290.50	60.00	0.00	0.00	0.00	0.00	0.00	0.00	0	0	0	0	290.5000	0	0	0	0
5208	0.00	0.00	84.00	-18.30	1.0400	183.30	0	165.00	164.00	0.00	0.00	0.00	0.00	0.00	0.00	0	0	0	0	165.0000	0	0	0	0
5219	0.00	0.00	0.00	0.00	1.0400	55.60	0	50.00	0.00	0.00	0.00	0.00	0.00	0.00	0.00	0	0	0	0	50.0000	0	0	0	0
5231	0.00	0.00	0.00	0.00	1.0400	11.10	0	10.00	0.00	0.00	0.00	0.00	0.00	0.00	0.00	0	0	0	0	10.0000	0	0	0	0
5238	0.00	0.00	42.20	-28.50	1.0400	220.00	0	198.00	3.00	0.00	0.00	0.00	0.00	0.00	0.00	0	0	0	0	198.0000	0	0	0	0
5243	0.00	0.00	31.90	-21.60	1.0400	166.70	0	150.00	0.00	0.00	0.00	0.00	0.00	0.00	0.00	0	0	0	0	150.0000	0	0	0	0
5262	1100.00	312.53	443.40	-98.80	1.0400	1338.90	1	1205.00	1100.00	0.00	0.00	0.00	0.00	0.00	0.00	0	0	0	0	1205.0000	0	0	0	0
5263	1100.00	274.23	439.80	-98.00	1.0400	1327.80	1	1195.00	1100.00	0.00	0.00	0.00	0.00	0.00	0.00	0	0	0	0	1195.0000	0	0	0	0
5281	0.00	0.00	165.90	-36.20	1.0400	362.20	0	326.00	70.00	0.00	0.00	0.00	0.00	0.00	0.00	0	0	0	0	326.0000	0	0	0	0
5282	115.74	64.30	165.90	-36.20	1.0400	362.20	1	326.00	70.00	0.00	0.00	0.00	0.00	0.00	0.00	0	0	0	0	326.0000	0	0	0	0
5283	0.00	0.00	118.10	-25.80	1.0400	257.80	0	232.00	140.00	0.00	0.00	0.00	0.00	0.00	0.00	0	0	0	0	232.0000	0	0	0	0
5284	50.00	0.00	0.00	0.00	1.0400	55.60	1	50.00	0.00	0.00	0.00	0.00	0.00	0.00	0.00	0	0	0	0	50.0000	0	0	0	0
5290	21.00	8.10	8.10	-1.00	1.0400	23.30	1	21.00	1.00	0.00	0.00	0.00	0.00	0.00	0.00	0	0	0	0	21.0000	0	0	0	0
5290	21.00	8.10	8.10	-1.00	1.0400	23.30	1	21.00	1.00	0.00	0.00	0.00	0.00	0.00	0.00	0	0	0	0	21.0000	0	0	0	0
5319	0.00	0.00	227.20	-49.50	1.0400	495.90	0	446.30	60.00	0.00	0.00	0.00	0.00	0.00	0.00	0	0	0	0	446.3000	0	0	0	0
5320	0.00	0.00	167.60	-36.60	1.0400	365.90	0	329.30	113.00	0.00	0.00	0.00	0.00	0.00	0.00	0	0	0	0	329.3000	0	0	0	0
5321	0.00	0.00	166.90	-36.40	1.0400	364.20	0	327.80	113.00	0.00	0.00	0.00	0.00	0.00	0.00	0	0	0	0	327.8000	0	0	0	0
5324	200.00	99.82	289.10	-63.00	1.0400	631.10	1	568.00	200.00	0.00	0.00	0.00	0.00	0.00	0.00	0	0	0	0	568.0000	0	0	0	0
5325	122.00	29.44	62.10	-13.50	1.0400	135.60	1	122.00	15.00	0.00	0.00	0.00	0.00	0.00	0.00	0	0	0	0	122.0000	0	0	0	0
5326	118.00	50.81	60.10	-13.10	1.0400	131.10	1	118.00	15.00	0.00	0.00	0.00	0.00	0.00	0.00	0	0	0	0	118.0000	0	0	0	0
...
];

// %% generator cost data
// mpc.gencost = [
// 2	0	0	4	0.0000	0.000	0.000	0.00
// 2	0	0	4	0.0000	0.000	0.000	0.00
// 2	0	0	4	0.0000	0.000	0.000	0.00
// 2	0	0	4	0.0000	0.000	0.000	0.00
// 2	0	0	4	0.0000	0.000	0.000	0.00
// 2	0	0	4	0.0000	0.000	0.000	0.00
// 2	0	0	4	0.0000	0.000	0.000	0.00
// 2	0	0	4	0.0000	0.000	0.000	0.00
// 2	0	0	4	0.0000	0.000	0.000	0.00
// 2	0	0	4	0.0000	0.000	0.000	0.00
// 2	0	0	4	0.0000	0.000	0.000	0.00
// 2	0	0	4	0.0000	0.000	0.000	0.00
// 2	0	0	4	0.0000	0.005	4.658	0.00
// 2	0	0	4	0.0000	0.004	4.657	0.00
// 2	0	0	4	0.0000	0.005	4.657	0.00
// 2	0	0	4	0.0000	0.004	4.657	0.00
// 2	0	0	4	0.0000	0.004	4.656	0.00
// 2	0	0	4	0.0000	0.000	0.000	0.00
// 2	0	0	4	0.0000	0.004	4.666	0.00
// 2	0	0	4	0.0000	0.005	4.666	0.00
// 2	0	0	4	0.0000	0.000	0.000	0.00
// 2	0	0	4	0.0000	0.000	0.000	0.00
// 2	0	0	4	0.0000	0.000	0.000	0.00
// 2	0	0	4	0.0000	0.007	4.847	0.00
// 2	0	0	4	0.0000	0.008	4.847	0.00
// 2	0	0	4	0.0000	0.006	4.795	0.00
// 2	0	0	4	0.0000	0.006	4.795	0.00
// 2	0	0	4	0.0000	0.006	4.783	0.00
// 2	0	0	4	0.0000	0.007	4.783	0.00
// 2	0	0	4	0.0000	0.000	0.000	0.00
// 2	0	0	4	0.0000	0.000	0.000	0.00
// 2	0	0	4	0.0000	0.000	0.000	0.00
// 2	0	0	4	0.0000	0.000	0.000	0.00
// 2	0	0	4	0.0000	0.000	0.000	0.00
// 2	0	0	4	0.0000	0.004	4.688	0.00
// 2	0	0	4	0.0000	0.005	4.673	0.00
// 2	0	0	4	0.0000	0.000	0.000	0.00
// 2	0	0	4	0.0000	0.000	0.000	0.00
// 2	0	0	4	0.0000	0.000	0.000	0.00
// 2	0	0	4	0.0000	0.000	0.000	0.00
// 2	0	0	4	0.0000	0.000	0.000	0.00
// 2	0	0	4	0.0000	0.000	0.000	0.00
// 2	0	0	4	0.0000	0.000	0.000	0.00
// 2	0	0	4	0.0000	0.004	4.594	0.00
// 2	0	0	4	0.0000	0.003	4.598	0.00
// 2	0	0	4	0.0000	0.003	4.598	0.00
// 2	0	0	4	0.0000	0.003	4.598	0.00
// 2	0	0	4	0.0000	0.000	0.000	0.00
// 2	0	0	4	0.0000	0.000	0.000	0.00
// 2	0	0	4	0.0000	0.000	0.000	0.00
// 2	0	0	4	0.0000	0.007	4.956	0.00
// 2	0	0	4	0.0000	0.007	4.838	0.00
// 2	0	0	4	0.0000	0.007	4.838	0.00
// 2	0	0	4	0.0000	0.000	0.000	0.00
// 2	0	0	4	0.0000	0.007	4.844	0.00
// 2	0	0	4	0.0000	0.008	4.844	0.00
// 2	0	0	4	0.0000	0.006	4.776	0.00
// 2	0	0	4	0.0000	0.006	4.776	0.00
// 2	0	0	4	0.0000	0.005	4.765	0.00
// 2	0	0	4	0.0000	0.005	4.765	0.00
// 2	0	0	4	0.0000	0.000	0.000	0.00
// 2	0	0	4	0.0000	0.000	0.000	0.00
// 2	0	0	4	0.0000	0.000	0.000	0.00
// 2	0	0	4	0.0000	0.000	0.000	0.00
// 2	0	0	4	0.0000	0.000	0.000	0.00
// 2	0	0	4	0.0000	0.000	0.000	0.00
// 2	0	0	4	0.0000	0.000	0.000	0.00
// 2	0	0	4	0.0000	0.000	0.000	0.00
// 2	0	0	4	0.0000	0.000	0.000	0.00
// 2	0	0	4	0.0000	0.000	0.000	0.00
// 2	0	0	4	0.0000	0.000	0.000	0.00
// 2	0	0	4	0.0000	0.000	0.000	0.00
// 2	0	0	4	0.0000	0.000	0.000	0.00
// 2	0	0	4	0.0000	0.000	0.000	0.00
// 2	0	0	4	0.0000	0.000	0.000	0.00
// 2	0	0	4	0.0000	0.000	0.000	0.00
// 2	0	0	4	0.0000	0.000	0.000	0.00
// 2	0	0	4	0.0000	0.000	0.000	0.00
// 2	0	0	4	0.0000	0.000	0.000	0.00
// 2	0	0	4	0.0000	0.000	0.000	0.00
// 2	0	0	4	0.0000	0.000	0.000	0.00
// 2	0	0	4	0.0000	0.000	0.000	0.00
// 2	0	0	4	0.0000	0.000	0.000	0.00
// 2	0	0	4	0.0000	0.000	0.000	0.00
// 2	0	0	4	0.0000	0.000	0.000	0.00
// 2	0	0	4	0.0000	0.000	0.000	0.00
// 2	0	0	4	0.0000	0.000	0.000	0.00
// 2	0	0	4	0.0000	0.000	0.000	0.00
// 2	0	0	4	0.0000	0.000	0.000	0.00
// 2	0	0	4	0.0000	0.000	0.000	0.00
// 2	0	0	4	0.0000	0.000	0.000	0.00
// 2	0	0	4	0.0000	0.000	0.000	0.00
// 2	0	0	4	0.0000	0.000	0.000	0.00
// 2	0	0	4	0.0000	0.000	0.000	0.00
// 2	0	0	4	0.0000	0.000	0.000	0.00
// 2	0	0	4	0.0000	0.000	0.000	0.00
// 2	0	0	4	0.0000	0.000	0.000	0.00
// 2	0	0	4	0.0000	0.023	8.017	0.00
// 2	0	0	4	0.0000	0.023	8.017	0.00
// 2	0	0	4	0.0000	0.003	4.615	0.00
// 2	0	0	4	0.0000	0.000	0.000	0.00
// 2	0	0	4	0.0000	0.000	0.000	0.00
// 2	0	0	4	0.0000	0.000	0.000	0.00
// 2	0	0	4	0.0000	0.000	0.000	0.00
// 2	0	0	4	0.0000	0.000	0.000	0.00
// 2	0	0	4	0.0000	0.004	4.615	0.00
// 2	0	0	4	0.0000	0.006	4.779	0.00
// 2	0	0	4	0.0000	0.007	4.779	0.00
// 2	0	0	4	0.0000	0.006	4.772	0.00
// 2	0	0	4	0.0000	0.000	0.000	0.00
// 2	0	0	4	0.0000	0.000	0.000	0.00
// 2	0	0	4	0.0000	0.000	0.000	0.00
// 2	0	0	4	0.0000	0.007	8.017	0.00
// 2	0	0	4	0.0000	0.008	8.017	0.00
// 2	0	0	4	0.0000	0.000	0.000	0.00
// 2	0	0	4	0.0000	0.007	4.814	0.00
// 2	0	0	4	0.0000	0.007	4.808	0.00
// 2	0	0	4	0.0000	0.006	4.808	0.00
// 2	0	0	4	0.0000	0.008	4.999	0.00
// 2	0	0	4	0.0000	0.007	4.962	0.00
// 2	0	0	4	0.0000	0.006	4.782	0.00
// 2	0	0	4	0.0000	0.005	4.782	0.00
// 2	0	0	4	0.0000	0.000	0.000	0.00
// 2	0	0	4	0.0000	0.000	0.000	0.00
// 2	0	0	4	0.0000	0.000	0.000	0.00
// 2	0	0	4	0.0000	0.000	0.000	0.00
// 2	0	0	4	0.0000	0.003	4.596	0.00
// 2	0	0	4	0.0000	0.003	4.596	0.00
// 2	0	0	4	0.0000	0.003	4.596	0.00
// 2	0	0	4	0.0000	0.002	4.596	0.00
// 2	0	0	4	0.0000	0.004	4.596	0.00
// 2	0	0	4	0.0000	0.003	4.596	0.00
// 2	0	0	4	0.0000	0.003	4.596	0.00
// 2	0	0	4	0.0000	0.004	4.596	0.00
// 2	0	0	4	0.0000	0.003	4.596	0.00
// 2	0	0	4	0.0000	0.003	4.596	0.00
// 2	0	0	4	0.0000	0.003	4.596	0.00
// 2	0	0	4	0.0000	0.003	4.596	0.00
// 2	0	0	4	0.0000	0.000	0.000	0.00
// 2	0	0	4	0.0000	0.000	0.000	0.00
// 2	0	0	4	0.0000	0.005	4.692	0.00
// 2	0	0	4	0.0000	0.006	4.688	0.00
// 2	0	0	4	0.0000	0.000	0.000	0.00
// 2	0	0	4	0.0000	0.000	0.000	0.00
// 2	0	0	4	0.0000	0.000	0.000	0.00
// 2	0	0	4	0.0000	0.007	4.999	0.00
// 2	0	0	4	0.0000	0.006	4.782	0.00
// 2	0	0	4	0.0000	0.006	4.782	0.00
// 2	0	0	4	0.0000	0.000	0.000	0.00
// 2	0	0	4	0.0000	0.000	0.000	0.00
// 2	0	0	4	0.0000	0.002	4.596	0.00
// 2	0	0	4	0.0000	0.004	4.596	0.00
// 2	0	0	4	0.0000	0.003	4.596	0.00
// 2	0	0	4	0.0000	0.003	4.596	0.00
// 2	0	0	4	0.0000	0.004	4.596	0.00
// 2	0	0	4	0.0000	0.004	4.596	0.00
// 2	0	0	4	0.0000	0.004	4.596	0.00
// 2	0	0	4	0.0000	0.003	4.596	0.00
// 2	0	0	4	0.0000	0.003	4.596	0.00
// 2	0	0	4	0.0000	0.003	4.596	0.00
// 2	0	0	4	0.0000	0.002	4.596	0.00
// 2	0	0	4	0.0000	0.004	4.596	0.00
// 2	0	0	4	0.0000	0.000	0.000	0.00
// 2	0	0	4	0.0000	0.000	0.000	0.00
// 2	0	0	4	0.0000	0.007	8.017	0.00
// 2	0	0	4	0.0000	0.003	4.595	0.00
// 2	0	0	4	0.0000	0.008	8.017	0.00
// 2	0	0	4	0.0000	0.007	5.094	0.00
// 2	0	0	4	0.0000	0.007	4.891	0.00
// 2	0	0	4	0.0000	0.000	0.000	0.00
// 2	0	0	4	0.0000	0.000	0.000	0.00
// 2	0	0	4	0.0000	0.006	4.850	0.00
// 2	0	0	4	0.0000	0.000	0.000	0.00
// 2	0	0	4	0.0000	0.000	0.000	0.00
// 2	0	0	4	0.0000	0.005	4.653	0.00
// 2	0	0	4	0.0000	0.004	4.653	0.00
// 2	0	0	4	0.0000	0.000	0.000	0.00
// 2	0	0	4	0.0000	0.000	0.000	0.00
// 2	0	0	4	0.0000	0.000	0.000	0.00
// 2	0	0	4	0.0000	0.007	4.960	0.00
// 2	0	0	4	0.0000	0.007	4.960	0.00
// 2	0	0	4	0.0000	0.006	4.792	0.00
// 2	0	0	4	0.0000	0.000	0.000	0.00
// 2	0	0	4	0.0000	0.000	0.000	0.00
// 2	0	0	4	0.0000	0.000	0.000	0.00
// 2	0	0	4	0.0000	0.000	0.000	0.00
// 2	0	0	4	0.0000	0.002	8.000	0.00
// 2	0	0	4	0.0000	0.002	8.000	0.00
// 2	0	0	4	0.0000	0.006	5.008	0.00
// 2	0	0	4	0.0000	0.006	5.008	0.00
// 2	0	0	4	0.0000	0.008	4.882	0.00
// 2	0	0	4	0.0000	0.000	0.000	0.00
// 2	0	0	4	0.0000	0.000	0.000	0.00
// 2	0	0	4	0.0000	0.000	0.000	0.00
// 2	0	0	4	0.0000	0.007	5.169	0.00
// 2	0	0	4	0.0000	0.008	5.012	0.00
// 2	0	0	4	0.0000	0.007	5.010	0.00
// 2	0	0	4	0.0000	0.007	5.332	0.00
// 2	0	0	4	0.0000	0.004	4.735	0.00
// 2	0	0	4	0.0000	0.005	4.729	0.00
// 2	0	0	4	0.0000	0.021	8.017	0.00
// 2	0	0	4	0.0000	0.006	4.900	0.00
// 2	0	0	4	0.0000	0.005	4.724	0.00
// 2	0	0	4	0.0000	0.000	0.000	0.00
// 2	0	0	4	0.0000	0.006	4.946	0.00
// 2	0	0	4	0.0000	0.007	4.887	0.00
// 2	0	0	4	0.0000	0.006	4.885	0.00
// 2	0	0	4	0.0000	0.006	4.839	0.00
// 2	0	0	4	0.0000	0.006	4.710	0.00
// 2	0	0	4	0.0000	0.005	4.710	0.00
// 2	0	0	4	0.0000	0.004	4.705	0.00
// 2	0	0	4	0.0000	0.005	4.660	0.00
// 2	0	0	4	0.0000	0.000	0.000	0.00
// 2	0	0	4	0.0000	0.006	5.020	0.00
// 2	0	0	4	0.0000	0.006	4.753	0.00
// 2	0	0	4	0.0000	0.006	4.753	0.00
// 2	0	0	4	0.0000	0.000	0.000	0.00
// 2	0	0	4	0.0000	0.007	4.835	0.00
// 2	0	0	4	0.0000	0.006	4.834	0.00
// 2	0	0	4	0.0000	0.007	4.786	0.00
// 2	0	0	4	0.0000	0.005	4.786	0.00
// 2	0	0	4	0.0000	0.006	4.776	0.00
// 2	0	0	4	0.0000	0.006	4.776	0.00
// 2	0	0	4	0.0000	0.023	8.017	0.00
// 2	0	0	4	0.0000	0.021	8.017	0.00
// 2	0	0	4	0.0000	0.024	8.017	0.00
// 2	0	0	4	0.0000	0.000	0.000	0.00
// 2	0	0	4	0.0000	0.000	0.000	0.00
// 2	0	0	4	0.0000	0.004	4.630	0.00
// 2	0	0	4	0.0000	0.004	4.630	0.00
// 2	0	0	4	0.0000	0.003	4.630	0.00
// 2	0	0	4	0.0000	0.004	4.630	0.00
// 2	0	0	4	0.0000	0.000	0.000	0.00
// 2	0	0	4	0.0000	0.000	0.000	0.00
// 2	0	0	4	0.0000	0.000	0.000	0.00
// 2	0	0	4	0.0000	0.000	0.000	0.00
// 2	0	0	4	0.0000	0.000	0.000	0.00
// 2	0	0	4	0.0000	0.007	4.977	0.00
// 2	0	0	4	0.0000	0.006	4.793	0.00
// 2	0	0	4	0.0000	0.007	4.783	0.00
// 2	0	0	4	0.0000	0.005	4.783	0.00
// 2	0	0	4	0.0000	0.000	0.000	0.00
// 2	0	0	4	0.0000	0.004	4.633	0.00
// 2	0	0	4	0.0000	0.004	4.615	0.00
// 2	0	0	4	0.0000	0.003	4.608	0.00
// 2	0	0	4	0.0000	0.003	4.606	0.00
// 2	0	0	4	0.0000	0.003	4.633	0.00
// 2	0	0	4	0.0000	0.003	4.633	0.00
// 2	0	0	4	0.0000	0.003	4.633	0.00
// 2	0	0	4	0.0000	0.004	4.633	0.00
// 2	0	0	4	0.0000	0.000	0.000	0.00
// 2	0	0	4	0.0000	0.000	0.000	0.00
// 2	0	0	4	0.0000	0.004	4.641	0.00
// 2	0	0	4	0.0000	0.003	4.641	0.00
// 2	0	0	4	0.0000	0.004	4.641	0.00
// 2	0	0	4	0.0000	0.004	4.641	0.00
// 2	0	0	4	0.0000	0.008	5.134	0.00
// 2	0	0	4	0.0000	0.008	5.121	0.00
// 2	0	0	4	0.0000	0.003	4.635	0.00
// 2	0	0	4	0.0000	0.003	4.635	0.00
// 2	0	0	4	0.0000	0.003	4.635	0.00
// 2	0	0	4	0.0000	0.004	4.635	0.00
// 2	0	0	4	0.0000	0.006	4.787	0.00
// 2	0	0	4	0.0000	0.007	4.773	0.00
// 2	0	0	4	0.0000	0.004	4.635	0.00
// 2	0	0	4	0.0000	0.003	4.635	0.00
// 2	0	0	4	0.0000	0.003	4.596	0.00
// 2	0	0	4	0.0000	0.004	4.596	0.00
// 2	0	0	4	0.0000	0.003	4.596	0.00
// 2	0	0	4	0.0000	0.003	4.596	0.00
// 2	0	0	4	0.0000	0.004	4.596	0.00
// 2	0	0	4	0.0000	0.003	4.596	0.00
// 2	0	0	4	0.0000	0.003	4.596	0.00
// 2	0	0	4	0.0000	0.004	4.596	0.00
// 2	0	0	4	0.0000	0.004	4.596	0.00
// 2	0	0	4	0.0000	0.003	4.596	0.00
// 2	0	0	4	0.0000	0.008	4.883	0.00
// 2	0	0	4	0.0000	0.007	4.800	0.00
// 2	0	0	4	0.0000	0.006	4.800	0.00
// 2	0	0	4	0.0000	0.008	4.881	0.00
// 2	0	0	4	0.0000	0.007	4.878	0.00
// 2	0	0	4	0.0000	0.007	4.877	0.00
// 2	0	0	4	0.0000	0.006	4.877	0.00
// 2	0	0	4	0.0000	0.000	0.000	0.00
// 2	0	0	4	0.0000	0.006	4.800	0.00
// 2	0	0	4	0.0000	0.007	4.800	0.00
// 2	0	0	4	0.0000	0.006	4.795	0.00
// 2	0	0	4	0.0000	0.007	4.794	0.00
// 2	0	0	4	0.0000	0.005	4.666	0.00
// 2	0	0	4	0.0000	0.004	4.637	0.00
// 2	0	0	4	0.0000	0.004	4.637	0.00
// 2	0	0	4	0.0000	0.004	4.635	0.00
// 2	0	0	4	0.0000	0.004	4.621	0.00
// 2	0	0	4	0.0000	0.003	4.591	0.00
// 2	0	0	4	0.0000	0.003	4.591	0.00
// 2	0	0	4	0.0000	0.004	4.587	0.00
// 2	0	0	4	0.0000	0.004	4.611	0.00
// 2	0	0	4	0.0000	0.003	4.611	0.00
// 2	0	0	4	0.0000	0.003	4.611	0.00
// 2	0	0	4	0.0000	0.003	4.591	0.00
// 2	0	0	4	0.0000	0.006	4.807	0.00
// 2	0	0	4	0.0000	0.005	4.721	0.00
// 2	0	0	4	0.0000	0.004	4.629	0.00
// 2	0	0	4	0.0000	0.004	4.629	0.00
// 2	0	0	4	0.0000	0.004	4.649	0.00
// 2	0	0	4	0.0000	0.004	4.635	0.00
// 2	0	0	4	0.0000	0.004	4.622	0.00
// 2	0	0	4	0.0000	0.004	4.614	0.00
// 2	0	0	4	0.0000	0.003	4.609	0.00
// 2	0	0	4	0.0000	0.004	4.701	0.00
// 2	0	0	4	0.0000	0.005	4.701	0.00
// 2	0	0	4	0.0000	0.005	4.668	0.00
// 2	0	0	4	0.0000	0.003	4.668	0.00
// 2	0	0	4	0.0000	0.004	4.668	0.00
// 2	0	0	4	0.0000	0.004	4.668	0.00
// 2	0	0	4	0.0000	0.000	0.000	0.00
// 2	0	0	4	0.0000	0.000	0.000	0.00
// 2	0	0	4	0.0000	0.008	5.575	0.00
// 2	0	0	4	0.0000	0.007	5.569	0.00
// 2	0	0	4	0.0000	0.000	0.000	0.00
// 2	0	0	4	0.0000	0.002	8.000	0.00
// 2	0	0	4	0.0000	0.002	8.000	0.00
// 2	0	0	4	0.0000	0.008	4.949	0.00
// 2	0	0	4	0.0000	0.006	4.815	0.00
// 2	0	0	4	0.0000	0.007	4.815	0.00
// 2	0	0	4	0.0000	0.007	4.815	0.00
// 2	0	0	4	0.0000	0.007	4.815	0.00
// 2	0	0	4	0.0000	0.006	4.815	0.00
// 2	0	0	4	0.0000	0.000	0.000	0.00
// 2	0	0	4	0.0000	0.005	4.759	0.00
// 2	0	0	4	0.0000	0.005	4.676	0.00
// 2	0	0	4	0.0000	0.004	4.610	0.00
// 2	0	0	4	0.0000	0.004	4.610	0.00
// 2	0	0	4	0.0000	0.004	4.610	0.00
// 2	0	0	4	0.0000	0.003	4.618	0.00
// 2	0	0	4	0.0000	0.004	4.644	0.00
// 2	0	0	4	0.0000	0.004	4.644	0.00
// 2	0	0	4	0.0000	0.005	4.644	0.00
// 2	0	0	4	0.0000	0.005	4.644	0.00
// 2	0	0	4	0.0000	0.003	4.644	0.00
// 2	0	0	4	0.0000	0.003	4.644	0.00
// 2	0	0	4	0.0000	0.004	4.644	0.00
// 2	0	0	4	0.0000	0.003	4.590	0.00
// 2	0	0	4	0.0000	0.005	4.719	0.00
// 2	0	0	4	0.0000	0.005	4.719	0.00
// 2	0	0	4	0.0000	0.004	4.646	0.00
// 2	0	0	4	0.0000	0.004	4.646	0.00
// 2	0	0	4	0.0000	0.003	4.646	0.00
// 2	0	0	4	0.0000	0.005	4.646	0.00
// 2	0	0	4	0.0000	0.004	4.646	0.00
// 2	0	0	4	0.0000	0.004	4.646	0.00
// 2	0	0	4	0.0000	0.004	4.644	0.00
// 2	0	0	4	0.0000	0.005	4.631	0.00
// 2	0	0	4	0.0000	0.003	4.631	0.00
// 2	0	0	4	0.0000	0.004	4.631	0.00
// 2	0	0	4	0.0000	0.003	4.631	0.00
// 2	0	0	4	0.0000	0.004	4.631	0.00
// 2	0	0	4	0.0000	0.004	4.631	0.00
// 2	0	0	4	0.0000	0.003	4.631	0.00
// 2	0	0	4	0.0000	0.004	4.631	0.00
// 2	0	0	4	0.0000	0.004	4.638	0.00
// 2	0	0	4	0.0000	0.004	4.634	0.00
// 2	0	0	4	0.0000	0.000	0.000	0.00
// 2	0	0	4	0.0000	0.005	4.672	0.00
// 2	0	0	4	0.0000	0.004	4.672	0.00
// 2	0	0	4	0.0000	0.005	4.672	0.00
// 2	0	0	4	0.0000	0.005	4.672	0.00
// 2	0	0	4	0.0000	0.006	4.917	0.00
// 2	0	0	4	0.0000	0.007	4.836	0.00
// 2	0	0	4	0.0000	0.007	4.810	0.00
// 2	0	0	4	0.0000	0.007	4.790	0.00
// 2	0	0	4	0.0000	0.007	4.790	0.00
// 2	0	0	4	0.0000	0.008	5.212	0.00
// 2	0	0	4	0.0000	0.007	5.020	0.00
// 2	0	0	4	0.0000	0.008	5.012	0.00
// 2	0	0	4	0.0000	0.000	0.000	0.00
// 2	0	0	4	0.0000	0.007	4.786	0.00
// 2	0	0	4	0.0000	0.003	4.669	0.00
// 2	0	0	4	0.0000	0.004	4.669	0.00
// 2	0	0	4	0.0000	0.005	4.669	0.00
// 2	0	0	4	0.0000	0.005	4.664	0.00
// 2	0	0	4	0.0000	0.007	4.894	0.00
// 2	0	0	4	0.0000	0.006	4.803	0.00
// 2	0	0	4	0.0000	0.023	8.017	0.00
// 2	0	0	4	0.0000	0.022	8.017	0.00
// 2	0	0	4	0.0000	0.022	8.017	0.00
// 2	0	0	4	0.0000	0.025	8.017	0.00
// 2	0	0	4	0.0000	0.008	5.311	0.00
// 2	0	0	4	0.0000	0.006	4.893	0.00
// 2	0	0	4	0.0000	0.007	4.798	0.00
// 2	0	0	4	0.0000	0.006	4.798	0.00
// 2	0	0	4	0.0000	0.004	4.589	0.00
// 2	0	0	4	0.0000	0.006	4.790	0.00
// 2	0	0	4	0.0000	0.006	4.790	0.00
// 2	0	0	4	0.0000	0.007	4.786	0.00
// 2	0	0	4	0.0000	0.005	4.784	0.00
// 2	0	0	4	0.0000	0.006	4.740	0.00
// 2	0	0	4	0.0000	0.003	4.588	0.00
// 2	0	0	4	0.0000	0.004	4.648	0.00
// 2	0	0	4	0.0000	0.003	4.642	0.00
// 2	0	0	4	0.0000	0.004	4.642	0.00
// 2	0	0	4	0.0000	0.005	4.634	0.00
// 2	0	0	4	0.0000	0.003	4.646	0.00
// 2	0	0	4	0.0000	0.004	4.619	0.00
// 2	0	0	4	0.0000	0.004	4.619	0.00
// 2	0	0	4	0.0000	0.004	4.619	0.00
// 2	0	0	4	0.0000	0.004	4.619	0.00
// 2	0	0	4	0.0000	0.003	4.629	0.00
// 2	0	0	4	0.0000	0.003	4.629	0.00
// 2	0	0	4	0.0000	0.000	0.000	0.00
// 2	0	0	4	0.0000	0.003	4.618	0.00
// 2	0	0	4	0.0000	0.000	0.000	0.00
// 2	0	0	4	0.0000	0.000	0.000	0.00
// 2	0	0	4	0.0000	0.006	4.815	0.00
// 2	0	0	4	0.0000	0.006	4.815	0.00
// 2	0	0	4	0.0000	0.006	4.795	0.00
// 2	0	0	4	0.0000	0.006	4.795	0.00
// 2	0	0	4	0.0000	0.007	4.795	0.00
// 2	0	0	4	0.0000	0.006	4.795	0.00
// 2	0	0	4	0.0000	0.024	8.017	0.00
// 2	0	0	4	0.0000	0.022	8.017	0.00
// 2	0	0	4	0.0000	0.007	5.114	0.00
// 2	0	0	4	0.0000	0.005	4.769	0.00
// 2	0	0	4	0.0000	0.006	4.767	0.00
// 2	0	0	4	0.0000	0.005	4.767	0.00
// 2	0	0	4	0.0000	0.024	8.017	0.00
// 2	0	0	4	0.0000	0.024	8.017	0.00
// 2	0	0	4	0.0000	0.000	0.000	0.00
// 2	0	0	4	0.0000	0.007	5.244	0.00
// 2	0	0	4	0.0000	0.005	4.795	0.00
// 2	0	0	4	0.0000	0.003	4.615	0.00
// 2	0	0	4	0.0000	0.003	4.586	0.00
// 2	0	0	4	0.0000	0.000	0.000	0.00
// 2	0	0	4	0.0000	0.004	4.599	0.00
// 2	0	0	4	0.0000	0.004	4.634	0.00
// 2	0	0	4	0.0000	0.005	4.634	0.00
// 2	0	0	4	0.0000	0.024	8.017	0.00
// 2	0	0	4	0.0000	0.025	8.017	0.00
// 2	0	0	4	0.0000	0.024	8.017	0.00
// 2	0	0	4	0.0000	0.007	5.115	0.00
// 2	0	0	4	0.0000	0.007	5.115	0.00
// 2	0	0	4	0.0000	0.006	4.792	0.00
// 2	0	0	4	0.0000	0.007	4.792	0.00
// 2	0	0	4	0.0000	0.007	4.782	0.00
// 2	0	0	4	0.0000	0.007	4.782	0.00
// 2	0	0	4	0.0000	0.007	4.782	0.00
// 2	0	0	4	0.0000	0.005	4.782	0.00
// 2	0	0	4	0.0000	0.006	4.933	0.00
// 2	0	0	4	0.0000	0.007	4.933	0.00
// 2	0	0	4	0.0000	0.008	4.933	0.00
// 2	0	0	4	0.0000	0.006	4.933	0.00
// 2	0	0	4	0.0000	0.007	4.933	0.00
// 2	0	0	4	0.0000	0.007	4.913	0.00
// 2	0	0	4	0.0000	0.008	4.882	0.00
// 2	0	0	4	0.0000	0.007	4.882	0.00
// 2	0	0	4	0.0000	0.007	4.882	0.00
// 2	0	0	4	0.0000	0.025	8.017	0.00
// 2	0	0	4	0.0000	0.025	8.017	0.00
// 2	0	0	4	0.0000	0.006	4.776	0.00
// 2	0	0	4	0.0000	0.006	4.776	0.00
// 2	0	0	4	0.0000	0.007	5.154	0.00
// 2	0	0	4	0.0000	0.008	5.154	0.00
// 2	0	0	4	0.0000	0.007	5.074	0.00
// 2	0	0	4	0.0000	0.007	4.792	0.00
// 2	0	0	4	0.0000	0.006	4.792	0.00
// 2	0	0	4	0.0000	0.006	4.792	0.00
// 2	0	0	4	0.0000	0.006	5.272	0.00
// 2	0	0	4	0.0000	0.008	5.096	0.00
// 2	0	0	4	0.0000	0.006	4.836	0.00
// 2	0	0	4	0.0000	0.006	4.836	0.00
// 2	0	0	4	0.0000	0.004	4.668	0.00
// 2	0	0	4	0.0000	0.005	4.668	0.00
// 2	0	0	4	0.0000	0.000	0.000	0.00
// 2	0	0	4	0.0000	0.000	0.000	0.00
// 2	0	0	4	0.0000	0.006	4.783	0.00
// 2	0	0	4	0.0000	0.005	4.783	0.00
// 2	0	0	4	0.0000	0.007	4.782	0.00
// 2	0	0	4	0.0000	0.004	4.681	0.00
// 2	0	0	4	0.0000	0.007	4.803	0.00
// 2	0	0	4	0.0000	0.006	4.803	0.00
// 2	0	0	4	0.0000	0.007	4.899	0.00
// 2	0	0	4	0.0000	0.006	4.899	0.00
// 2	0	0	4	0.0000	0.007	4.899	0.00
// 2	0	0	4	0.0000	0.008	4.889	0.00
// 2	0	0	4	0.0000	0.007	4.859	0.00
// 2	0	0	4	0.0000	0.006	4.859	0.00
// 2	0	0	4	0.0000	0.005	4.783	0.00
// 2	0	0	4	0.0000	0.006	4.783	0.00
// 2	0	0	4	0.0000	0.006	4.783	0.00
// 2	0	0	4	0.0000	0.005	4.672	0.00
// 2	0	0	4	0.0000	0.004	4.672	0.00
// 2	0	0	4	0.0000	0.003	4.613	0.00
// 2	0	0	4	0.0000	0.004	4.613	0.00
// 2	0	0	4	0.0000	0.005	4.709	0.00
// 2	0	0	4	0.0000	0.005	4.709	0.00
// 2	0	0	4	0.0000	0.005	4.685	0.00
// 2	0	0	4	0.0000	0.005	4.685	0.00
// 2	0	0	4	0.0000	0.005	4.685	0.00
// 2	0	0	4	0.0000	0.004	4.685	0.00
// 2	0	0	4	0.0000	0.000	0.000	0.00
// 2	0	0	4	0.0000	0.000	0.000	0.00
// 2	0	0	4	0.0000	0.000	0.000	0.00
// 2	0	0	4	0.0000	0.000	0.000	0.00
// 2	0	0	4	0.0000	0.000	0.000	0.00
// 2	0	0	4	0.0000	0.000	0.000	0.00
// 2	0	0	4	0.0000	0.000	0.000	0.00
// 2	0	0	4	0.0000	0.000	0.000	0.00
// 2	0	0	4	0.0000	0.000	0.000	0.00
// 2	0	0	4	0.0000	0.006	4.844	0.00
// 2	0	0	4	0.0000	0.007	4.795	0.00
// 2	0	0	4	0.0000	0.006	4.795	0.00
// 2	0	0	4	0.0000	0.000	0.000	0.00
// 2	0	0	4	0.0000	0.004	4.664	0.00
// 2	0	0	4	0.0000	0.005	4.664	0.00
// 2	0	0	4	0.0000	0.005	4.662	0.00
// 2	0	0	4	0.0000	0.004	4.662	0.00
// 2	0	0	4	0.0000	0.000	0.000	0.00
// 2	0	0	4	0.0000	0.007	4.826	0.00
// 2	0	0	4	0.0000	0.006	4.791	0.00
// 2	0	0	4	0.0000	0.006	4.791	0.00
// 2	0	0	4	0.0000	0.006	4.812	0.00
// 2	0	0	4	0.0000	0.006	4.796	0.00
// 2	0	0	4	0.0000	0.007	4.796	0.00
// 2	0	0	4	0.0000	0.000	0.000	0.00
// 2	0	0	4	0.0000	0.006	4.802	0.00
// 2	0	0	4	0.0000	0.006	4.798	0.00
// 2	0	0	4	0.0000	0.007	4.798	0.00
// 2	0	0	4	0.0000	0.006	4.803	0.00
// 2	0	0	4	0.0000	0.006	4.803	0.00
// 2	0	0	4	0.0000	0.006	4.786	0.00
// 2	0	0	4	0.0000	0.000	0.000	0.00
// 2	0	0	4	0.0000	0.000	0.000	0.00
// 2	0	0	4	0.0000	0.000	0.000	0.00
// 2	0	0	4	0.0000	0.000	0.000	0.00
// 2	0	0	4	0.0000	0.000	0.000	0.00
// 2	0	0	4	0.0000	0.006	4.808	0.00
// 2	0	0	4	0.0000	0.007	4.784	0.00
// 2	0	0	4	0.0000	0.006	4.782	0.00
// 2	0	0	4	0.0000	0.000	0.000	0.00
// 2	0	0	4	0.0000	0.005	4.686	0.00
// 2	0	0	4	0.0000	0.003	4.663	0.00
// 2	0	0	4	0.0000	0.005	4.660	0.00
// 2	0	0	4	0.0000	0.004	4.660	0.00
// 2	0	0	4	0.0000	0.004	4.659	0.00
// 2	0	0	4	0.0000	0.004	4.658	0.00
// 2	0	0	4	0.0000	0.005	4.657	0.00
// 2	0	0	4	0.0000	0.000	0.000	0.00
// 2	0	0	4	0.0000	0.000	0.000	0.00
// 2	0	0	4	0.0000	0.000	0.000	0.00
// 2	0	0	4	0.0000	0.000	0.000	0.00
// 2	0	0	4	0.0000	0.000	0.000	0.00
// 2	0	0	4	0.0000	0.000	0.000	0.00
// 2	0	0	4	0.0000	0.006	4.703	0.00
// 2	0	0	4	0.0000	0.005	4.703	0.00
// 2	0	0	4	0.0000	0.004	4.665	0.00
// 2	0	0	4	0.0000	0.005	4.665	0.00
// 2	0	0	4	0.0000	0.005	4.662	0.00
// 2	0	0	4	0.0000	0.004	4.662	0.00
// 2	0	0	4	0.0000	0.000	0.000	0.00
// 2	0	0	4	0.0000	0.000	0.000	0.00
// 2	0	0	4	0.0000	0.000	0.000	0.00
// 2	0	0	4	0.0000	0.000	0.000	0.00
// 2	0	0	4	0.0000	0.000	0.000	0.00
// 2	0	0	4	0.0000	0.006	4.699	0.00
// 2	0	0	4	0.0000	0.005	4.699	0.00
// 2	0	0	4	0.0000	0.005	4.699	0.00
// 2	0	0	4	0.0000	0.004	4.663	0.00
// 2	0	0	4	0.0000	0.003	4.663	0.00
// 2	0	0	4	0.0000	0.000	0.000	0.00
// 2	0	0	4	0.0000	0.000	0.000	0.00
// 2	0	0	4	0.0000	0.004	4.631	0.00
// 2	0	0	4	0.0000	0.005	4.631	0.00
// 2	0	0	4	0.0000	0.004	4.631	0.00
// 2	0	0	4	0.0000	0.004	4.631	0.00
// 2	0	0	4	0.0000	0.004	4.631	0.00
// 2	0	0	4	0.0000	0.004	4.631	0.00
// 2	0	0	4	0.0000	0.005	4.631	0.00
// 2	0	0	4	0.0000	0.004	4.631	0.00
// 2	0	0	4	0.0000	0.004	4.631	0.00
// 2	0	0	4	0.0000	0.005	4.631	0.00
// 2	0	0	4	0.0000	0.005	4.717	0.00
// 2	0	0	4	0.0000	0.006	4.717	0.00
// 2	0	0	4	0.0000	0.005	4.717	0.00
// 2	0	0	4	0.0000	0.004	4.717	0.00
// 2	0	0	4	0.0000	0.000	0.000	0.00
// 2	0	0	4	0.0000	0.005	4.761	0.00
// 2	0	0	4	0.0000	0.004	4.694	0.00
...